<?xml version="1.0" encoding="utf-8"?><!-- generated on 10/11/17 17:48:25 by SUMO netconvert Version 0.25.0
<?xml version="1.0" encoding="UTF-8"?>

<configuration xmlns:xsi="http://www.w3.org/2001/XMLSchema-instance" xsi:noNamespaceSchemaLocation="http://sumo.dlr.de/xsd/netconvertConfiguration.xsd">

    <input>
        <type-files value="osmNetconvert.typ.xml"/>
        <osm-files value="AC_Altstadt_historical_800.osm"/>
    </input>

    <output>
        <output-file value="AC_Altstadt_historical_800.net.xml"/>
    </output>

    <projection>
        <proj.utm value="true"/>
    </projection>

    <edge_removal>
        <remove-edges.by-type value="highway.track,highway.unsurfaced,highway.raceway,highway.bridleway,highway.path,highway.footway,highway.pedestrian,highway.cycleway,highway.step,highway.steps,highway.stairs,highway.bus_guideway,highway.ford,railway.rail,railway.tram,railway.light_rail,railway.subway,railway.preserved,railway.narrow_gauge,railway.monorail,railway.funicular"/>
    </edge_removal>

</configuration>
-->
<net version="0.25">
   <location convBoundary="0.00,0.00,943.52,876.11" netOffset="-293818.85,-5628501.80" origBoundary="6.075507,50.771801,6.088796,50.779498" projParameter="+proj=utm +zone=32 +ellps=WGS84 +datum=WGS84 +units=m +no_defs"/>
   <type allow="pedestrian" id="highway.bridleway" numLanes="1" oneway="1" priority="1" speed="2.78" width="2.00"/>
   <type allow="bus" id="highway.bus_guideway" numLanes="1" oneway="1" priority="1" speed="8.33"/>
   <type allow="bicycle" id="highway.cycleway" numLanes="1" oneway="0" priority="1" speed="5.56" width="1.00"/>
   <type allow="pedestrian" id="highway.footway" numLanes="1" oneway="1" priority="1" speed="8.33" width="2.00"/>
   <type allow="army" id="highway.ford" numLanes="1" oneway="0" priority="1" speed="2.78"/>
   <type disallow="tram rail_urban rail rail_electric ship" id="highway.living_street" numLanes="1" oneway="0" priority="3" speed="2.78"/>
   <type allow="private emergency authority army vip passenger hov taxi bus coach delivery truck trailer motorcycle evehicle custom1 custom2" id="highway.motorway" numLanes="2" oneway="1" priority="13" speed="44.44"/>
   <type allow="private emergency authority army vip passenger hov taxi bus coach delivery truck trailer motorcycle evehicle custom1 custom2" id="highway.motorway_link" numLanes="1" oneway="1" priority="12" speed="22.22"/>
   <type allow="bicycle pedestrian" id="highway.path" numLanes="1" oneway="1" priority="1" speed="2.78" width="2.00"/>
   <type allow="pedestrian" id="highway.pedestrian" numLanes="1" oneway="1" priority="1" speed="8.33" width="2.00"/>
   <type disallow="tram rail_urban rail rail_electric ship" id="highway.primary" numLanes="2" oneway="0" priority="9" speed="27.78"/>
   <type disallow="tram rail_urban rail rail_electric ship" id="highway.primary_link" numLanes="1" oneway="0" priority="8" speed="22.22"/>
   <type allow="vip" id="highway.raceway" numLanes="2" oneway="0" priority="14" speed="83.33"/>
   <type disallow="tram rail_urban rail rail_electric ship" id="highway.residential" numLanes="1" oneway="0" priority="4" speed="13.89"/>
   <type disallow="tram rail_urban rail rail_electric ship" id="highway.secondary" numLanes="2" oneway="0" priority="7" speed="27.78"/>
   <type disallow="tram rail_urban rail rail_electric ship" id="highway.secondary_link" numLanes="1" oneway="0" priority="6" speed="22.22"/>
   <type allow="delivery bicycle pedestrian" id="highway.service" numLanes="1" oneway="0" priority="2" speed="5.56"/>
   <type disallow="tram rail_urban rail rail_electric ship" id="highway.services" numLanes="1" oneway="0" priority="1" speed="8.33"/>
   <type allow="pedestrian" id="highway.stairs" numLanes="1" oneway="1" priority="1" speed="1.39" width="2.00"/>
   <type allow="pedestrian" id="highway.step" numLanes="1" oneway="1" priority="1" speed="1.39" width="2.00"/>
   <type allow="pedestrian" id="highway.steps" numLanes="1" oneway="1" priority="1" speed="1.39" width="2.00"/>
   <type disallow="tram rail_urban rail rail_electric ship" id="highway.tertiary" numLanes="1" oneway="0" priority="6" speed="22.22"/>
   <type disallow="tram rail_urban rail rail_electric ship" id="highway.tertiary_link" numLanes="1" oneway="0" priority="5" speed="22.22"/>
   <type disallow="tram rail_urban rail rail_electric ship" id="highway.track" numLanes="1" oneway="0" priority="1" speed="5.56"/>
   <type disallow="tram rail_urban rail rail_electric bicycle pedestrian ship" id="highway.trunk" numLanes="2" oneway="0" priority="11" speed="27.78"/>
   <type disallow="tram rail_urban rail rail_electric bicycle pedestrian ship" id="highway.trunk_link" numLanes="1" oneway="0" priority="10" speed="22.22"/>
   <type disallow="tram rail_urban rail rail_electric ship" id="highway.unclassified" numLanes="1" oneway="0" priority="5" speed="13.89"/>
   <type disallow="tram rail_urban rail rail_electric ship" id="highway.unsurfaced" numLanes="1" oneway="0" priority="1" speed="8.33"/>
   <type allow="rail_urban" id="railway.light_rail" numLanes="1" oneway="1" priority="15" speed="27.78"/>
   <type allow="rail" id="railway.preserved" numLanes="1" oneway="1" priority="15" speed="27.78"/>
   <type allow="rail rail_electric" id="railway.rail" numLanes="1" oneway="1" priority="15" speed="83.33"/>
   <type allow="rail_urban" id="railway.subway" numLanes="1" oneway="1" priority="15" speed="27.78"/>
   <type allow="tram" id="railway.tram" numLanes="1" oneway="1" priority="15" speed="13.89"/>
   <edge function="internal" id=":1001230412_0">
      <lane allow="delivery bicycle pedestrian" id=":1001230412_0_0" index="0" length="4.82" shape="438.24,358.11 438.66,356.68 439.33,356.05 440.24,356.20 441.39,357.14" speed="5.56"/>
   </edge>
   <edge function="internal" id=":1001230418_0">
      <lane allow="delivery bicycle pedestrian" id=":1001230418_0_0" index="0" length="0.10" shape="474.25,379.44 474.24,379.43" speed="5.56"/>
   </edge>
   <edge function="internal" id=":1001230418_1">
      <lane allow="delivery bicycle pedestrian" id=":1001230418_1_0" index="0" length="2.41" shape="474.25,379.44 473.46,378.17 473.43,377.25" speed="5.56"/>
   </edge>
   <edge function="internal" id=":1001230418_4">
      <lane id=":1001230418_4_0" index="0" length="2.41" shape="473.43,377.25 474.14,376.67 475.61,376.43" speed="5.56"/>
   </edge>
   <edge function="internal" id=":1001230418_2">
      <lane allow="delivery bicycle pedestrian" id=":1001230418_2_0" index="0" length="0.10" shape="475.64,376.45 475.61,376.43" speed="5.56"/>
   </edge>
   <edge function="internal" id=":1001230418_3">
      <lane allow="delivery bicycle pedestrian" id=":1001230418_3_0" index="0" length="2.41" shape="475.64,376.45 476.41,377.72 476.43,378.64" speed="5.56"/>
   </edge>
   <edge function="internal" id=":1001230418_5">
      <lane id=":1001230418_5_0" index="0" length="2.41" shape="476.43,378.64 475.71,379.21 474.24,379.43" speed="5.56"/>
   </edge>
   <edge function="internal" id=":1001230420_0">
      <lane allow="delivery bicycle pedestrian" id=":1001230420_0_0" index="0" length="4.05" shape="441.69,363.93 440.80,363.39 440.07,362.72 439.51,361.90 439.11,360.95" speed="5.56"/>
   </edge>
   <edge function="internal" id=":1001230420_1">
      <lane allow="delivery bicycle pedestrian" id=":1001230420_1_0" index="0" length="2.86" shape="441.69,363.93 440.93,362.65 440.91,361.73 441.27,361.45" speed="5.56"/>
   </edge>
   <edge function="internal" id=":1001230420_4">
      <lane id=":1001230420_4_0" index="0" length="1.96" shape="441.27,361.45 441.64,361.16 443.11,360.95" speed="5.56"/>
   </edge>
   <edge function="internal" id=":1001230420_2">
      <lane allow="delivery bicycle pedestrian" id=":1001230420_2_0" index="0" length="1.32" shape="442.27,359.97 442.40,360.29 442.58,360.55 442.82,360.77 443.11,360.95" speed="5.56"/>
   </edge>
   <edge function="internal" id=":1001230420_3">
      <lane allow="delivery bicycle pedestrian" id=":1001230420_3_0" index="0" length="2.06" shape="442.27,359.97 441.84,361.40 441.43,361.80" speed="5.56"/>
   </edge>
   <edge function="internal" id=":1001230420_5">
      <lane id=":1001230420_5_0" index="0" length="2.76" shape="441.43,361.80 441.18,362.04 440.27,361.89 439.11,360.95" speed="5.56"/>
   </edge>
   <edge function="internal" id=":1001308441_0">
      <lane allow="delivery bicycle pedestrian" id=":1001308441_0_0" index="0" length="4.82" shape="322.87,281.91 324.21,281.28 325.13,281.35 325.62,282.13 325.69,283.62" speed="5.56"/>
   </edge>
   <edge function="internal" id=":1001308474_0">
      <lane disallow="tram rail_urban rail rail_electric ship" id=":1001308474_0_0" index="0" length="9.68" shape="298.80,319.24 291.05,313.45" speed="8.33"/>
   </edge>
   <edge function="internal" id=":1001308474_1">
      <lane allow="delivery bicycle pedestrian" id=":1001308474_1_0" index="0" length="5.14" shape="298.80,319.24 296.90,317.36 296.03,315.18 296.04,315.06" speed="6.95"/>
   </edge>
   <edge function="internal" id=":1001308474_2">
      <lane disallow="tram rail_urban rail rail_electric ship" id=":1001308474_2_0" index="0" length="2.41" shape="298.80,319.24 298.28,317.85 298.43,316.94" speed="8.33"/>
   </edge>
   <edge function="internal" id=":1001308474_9">
      <lane id=":1001308474_9_0" index="0" length="5.32" shape="296.04,315.06 296.18,312.73 297.36,309.99" speed="6.95"/>
   </edge>
   <edge function="internal" id=":1001308474_10">
      <lane id=":1001308474_10_0" index="0" length="2.41" shape="298.43,316.94 299.25,316.51 300.74,316.57" speed="8.33"/>
   </edge>
   <edge function="internal" id=":1001308474_3">
      <lane disallow="tram rail_urban rail rail_electric ship" id=":1001308474_3_0" index="0" length="5.51" shape="300.21,311.65 299.54,313.15 299.41,314.47 299.81,315.61 300.74,316.57" speed="6.95"/>
   </edge>
   <edge function="internal" id=":1001308474_4">
      <lane disallow="tram rail_urban rail rail_electric ship" id=":1001308474_4_0" index="0" length="10.98" shape="300.21,311.65 298.30,314.05 296.14,315.15 293.72,314.95 291.05,313.45" speed="6.95"/>
   </edge>
   <edge function="internal" id=":1001308474_5">
      <lane allow="delivery bicycle pedestrian" id=":1001308474_5_0" index="0" length="4.82" shape="300.21,311.65 298.87,312.30 297.95,312.24 297.45,311.47 297.36,309.99" speed="5.56"/>
   </edge>
   <edge function="internal" id=":1001308474_6">
      <lane allow="delivery bicycle pedestrian" id=":1001308474_6_0" index="0" length="5.16" shape="293.06,310.83 294.31,311.53 295.45,311.63 296.46,311.11 297.36,309.99" speed="6.95"/>
   </edge>
   <edge function="internal" id=":1001308474_7">
      <lane disallow="tram rail_urban rail rail_electric ship" id=":1001308474_7_0" index="0" length="9.59" shape="293.06,310.83 300.74,316.57" speed="8.33"/>
   </edge>
   <edge function="internal" id=":1001308474_8">
      <lane disallow="tram rail_urban rail rail_electric ship" id=":1001308474_8_0" index="0" length="2.41" shape="293.06,310.83 293.54,312.24 293.36,313.14" speed="8.33"/>
   </edge>
   <edge function="internal" id=":1001308474_11">
      <lane id=":1001308474_11_0" index="0" length="2.41" shape="293.36,313.14 292.53,313.55 291.05,313.45" speed="8.33"/>
   </edge>
   <edge function="internal" id=":100866345_0">
      <lane disallow="tram rail_urban rail rail_electric ship" id=":100866345_0_0" index="0" length="7.93" shape="781.97,655.95 782.08,663.88" speed="8.33"/>
   </edge>
   <edge function="internal" id=":100866345_1">
      <lane disallow="tram rail_urban rail rail_electric ship" id=":100866345_1_0" index="0" length="4.57" shape="776.06,660.90 777.16,661.38 777.99,662.08 778.53,663.02 778.79,664.20" speed="6.95"/>
   </edge>
   <edge function="internal" id=":1011845957_0">
      <lane allow="delivery bicycle pedestrian" id=":1011845957_0_0" index="0" length="0.19" shape="218.84,769.25 218.70,769.11" speed="5.56"/>
   </edge>
   <edge function="internal" id=":1011845957_1">
      <lane allow="delivery bicycle pedestrian" id=":1011845957_1_0" index="0" length="2.41" shape="218.84,769.25 218.52,767.79 218.80,766.91" speed="5.56"/>
   </edge>
   <edge function="internal" id=":1011845957_4">
      <lane id=":1011845957_4_0" index="0" length="2.41" shape="218.80,766.91 219.67,766.60 221.13,766.87" speed="5.56"/>
   </edge>
   <edge function="internal" id=":1011845957_2">
      <lane allow="delivery bicycle pedestrian" id=":1011845957_2_0" index="0" length="0.10" shape="221.10,766.83 221.13,766.87" speed="5.56"/>
   </edge>
   <edge function="internal" id=":1011845957_3">
      <lane allow="delivery bicycle pedestrian" id=":1011845957_3_0" index="0" length="2.41" shape="221.10,766.83 221.35,768.30 221.04,769.17" speed="5.56"/>
   </edge>
   <edge function="internal" id=":1011845957_5">
      <lane id=":1011845957_5_0" index="0" length="2.41" shape="221.04,769.17 220.16,769.44 218.70,769.11" speed="5.56"/>
   </edge>
   <edge function="internal" id=":1011845960_0">
      <lane allow="delivery bicycle pedestrian" id=":1011845960_0_0" index="0" length="0.10" shape="223.90,763.26 223.90,763.26" speed="5.56"/>
   </edge>
   <edge function="internal" id=":1011845960_1">
      <lane allow="delivery bicycle pedestrian" id=":1011845960_1_0" index="0" length="2.41" shape="223.90,763.26 223.51,761.83 223.74,760.93" speed="5.56"/>
   </edge>
   <edge function="internal" id=":1011845960_4">
      <lane id=":1011845960_4_0" index="0" length="2.41" shape="223.74,760.93 224.59,760.58 226.07,760.77" speed="5.56"/>
   </edge>
   <edge function="internal" id=":1011845960_2">
      <lane allow="delivery bicycle pedestrian" id=":1011845960_2_0" index="0" length="0.10" shape="226.07,760.77 226.07,760.77" speed="5.56"/>
   </edge>
   <edge function="internal" id=":1011845960_3">
      <lane allow="delivery bicycle pedestrian" id=":1011845960_3_0" index="0" length="2.41" shape="226.07,760.77 226.46,762.21 226.23,763.10" speed="5.56"/>
   </edge>
   <edge function="internal" id=":1011845960_5">
      <lane id=":1011845960_5_0" index="0" length="2.41" shape="226.23,763.10 225.38,763.45 223.90,763.26" speed="5.56"/>
   </edge>
   <edge function="internal" id=":1012294045_0">
      <lane disallow="tram rail_urban rail rail_electric ship" id=":1012294045_0_0" index="0" length="0.10" shape="442.58,818.91 442.58,818.90" speed="13.89"/>
      <lane disallow="tram rail_urban rail rail_electric ship" id=":1012294045_0_1" index="1" length="0.10" shape="440.90,821.74 440.90,821.75" speed="13.89"/>
   </edge>
   <edge function="internal" id=":1013136901_0">
      <lane allow="delivery bicycle pedestrian" id=":1013136901_0_0" index="0" length="0.10" shape="207.58,758.75 207.57,758.73" speed="5.56"/>
   </edge>
   <edge function="internal" id=":1013136901_1">
      <lane allow="delivery bicycle pedestrian" id=":1013136901_1_0" index="0" length="2.41" shape="207.58,758.75 207.27,757.29 207.55,756.41" speed="5.56"/>
   </edge>
   <edge function="internal" id=":1013136901_4">
      <lane id=":1013136901_4_0" index="0" length="2.41" shape="207.55,756.41 208.42,756.11 209.88,756.38" speed="5.56"/>
   </edge>
   <edge function="internal" id=":1013136901_2">
      <lane allow="delivery bicycle pedestrian" id=":1013136901_2_0" index="0" length="0.10" shape="209.91,756.41 209.88,756.38" speed="5.56"/>
   </edge>
   <edge function="internal" id=":1013136901_3">
      <lane allow="delivery bicycle pedestrian" id=":1013136901_3_0" index="0" length="2.41" shape="209.91,756.41 210.20,757.87 209.90,758.74" speed="5.56"/>
   </edge>
   <edge function="internal" id=":1013136901_5">
      <lane id=":1013136901_5_0" index="0" length="2.41" shape="209.90,758.74 209.02,759.03 207.57,758.73" speed="5.56"/>
   </edge>
   <edge function="internal" id=":103161417_0">
      <lane disallow="tram rail_urban rail rail_electric ship" id=":103161417_0_0" index="0" length="5.08" shape="760.50,435.12 759.14,434.75 758.02,434.92 757.14,435.64 756.49,436.88" speed="8.33"/>
   </edge>
   <edge function="internal" id=":103161417_1">
      <lane disallow="tram rail_urban rail rail_electric ship" id=":103161417_1_0" index="0" length="6.05" shape="760.50,435.12 755.05,432.49" speed="8.33"/>
   </edge>
   <edge function="internal" id=":103161417_2">
      <lane disallow="tram rail_urban rail rail_electric ship" id=":103161417_2_0" index="0" length="4.82" shape="760.50,435.12 759.69,433.87 759.63,432.95 760.34,432.35 761.80,432.08" speed="8.33"/>
   </edge>
   <edge function="internal" id=":103161417_3">
      <lane disallow="tram rail_urban rail rail_electric ship" id=":103161417_3_0" index="0" length="5.71" shape="756.66,429.60 761.80,432.08" speed="8.33"/>
   </edge>
   <edge function="internal" id=":103161417_4">
      <lane disallow="tram rail_urban rail rail_electric ship" id=":103161417_4_0" index="0" length="7.71" shape="756.66,429.60 757.39,430.47 757.61,431.98 757.31,434.11 756.49,436.88" speed="8.33"/>
   </edge>
   <edge function="internal" id=":103161417_5">
      <lane disallow="tram rail_urban rail rail_electric ship" id=":103161417_5_0" index="0" length="4.82" shape="756.66,429.60 757.34,430.92 757.30,431.85 756.54,432.37 755.05,432.49" speed="8.33"/>
   </edge>
   <edge function="internal" id=":103161420_0">
      <lane disallow="tram rail_urban rail rail_electric ship" id=":103161420_0_0" index="0" length="5.04" shape="731.25,505.81 729.91,505.41 728.75,505.51 727.78,506.11 727.00,507.20" speed="8.33"/>
   </edge>
   <edge function="internal" id=":103161420_1">
      <lane disallow="tram rail_urban rail rail_electric ship" id=":103161420_1_0" index="0" length="4.82" shape="731.25,505.81 730.46,504.55 730.42,503.63 731.13,503.04 732.60,502.79" speed="8.33"/>
   </edge>
   <edge function="internal" id=":103161420_2">
      <lane disallow="tram rail_urban rail rail_electric ship" id=":103161420_2_0" index="0" length="4.98" shape="731.00,498.71 730.65,500.03 730.79,501.14 731.44,502.07 732.60,502.79" speed="8.33"/>
   </edge>
   <edge function="internal" id=":103161420_3">
      <lane disallow="tram rail_urban rail rail_electric ship" id=":103161420_3_0" index="0" length="9.39" shape="731.00,498.71 727.00,507.20" speed="8.33"/>
   </edge>
   <edge function="internal" id=":103161422_0">
      <lane disallow="tram rail_urban rail rail_electric ship" id=":103161422_0_0" index="0" length="5.16" shape="714.16,532.17 713.62,533.55 713.51,534.81 713.82,535.94 714.54,536.95" speed="8.33"/>
   </edge>
   <edge function="internal" id=":103161422_1">
      <lane disallow="tram rail_urban rail rail_electric ship" id=":103161422_1_0" index="0" length="5.88" shape="709.93,533.31 714.54,536.95" speed="8.33"/>
   </edge>
   <edge function="internal" id=":103161428_0">
      <lane disallow="tram rail_urban rail rail_electric ship" id=":103161428_0_0" index="0" length="9.57" shape="868.41,581.16 865.37,590.23" speed="8.33"/>
   </edge>
   <edge function="internal" id=":103161428_1">
      <lane disallow="tram rail_urban rail rail_electric ship" id=":103161428_1_0" index="0" length="11.07" shape="868.41,581.16 867.02,583.92 865.11,585.44 862.69,585.71 859.75,584.73" speed="8.33"/>
   </edge>
   <edge function="internal" id=":103161428_2">
      <lane disallow="tram rail_urban rail rail_electric ship" id=":103161428_2_0" index="0" length="4.82" shape="868.41,581.16 867.24,582.07 866.33,582.20 865.67,581.54 865.28,580.11" speed="8.33"/>
   </edge>
   <edge function="internal" id=":103161428_3">
      <lane disallow="tram rail_urban rail rail_electric ship" id=":103161428_3_0" index="0" length="5.18" shape="861.23,581.78 862.61,582.24 863.74,582.11 864.63,581.40 865.28,580.11" speed="8.33"/>
   </edge>
   <edge function="internal" id=":103161428_4">
      <lane disallow="tram rail_urban rail rail_electric ship" id=":103161428_4_0" index="0" length="10.42" shape="861.23,581.78 863.73,583.43 865.25,585.39 865.80,587.66 865.37,590.23" speed="8.33"/>
   </edge>
   <edge function="internal" id=":103161428_5">
      <lane disallow="tram rail_urban rail rail_electric ship" id=":103161428_5_0" index="0" length="4.82" shape="861.23,581.78 861.97,583.07 861.97,584.00 861.23,584.55 859.75,584.73" speed="8.33"/>
   </edge>
   <edge function="internal" id=":103161428_6">
      <lane disallow="tram rail_urban rail rail_electric ship" id=":103161428_6_0" index="0" length="5.63" shape="862.24,589.18 862.43,587.87 862.08,586.70 861.19,585.65 859.75,584.73" speed="8.33"/>
   </edge>
   <edge function="internal" id=":103161428_7">
      <lane disallow="tram rail_urban rail rail_electric ship" id=":103161428_7_0" index="0" length="9.57" shape="862.24,589.18 865.28,580.11" speed="8.33"/>
   </edge>
   <edge function="internal" id=":103161428_8">
      <lane disallow="tram rail_urban rail rail_electric ship" id=":103161428_8_0" index="0" length="4.82" shape="862.24,589.18 863.42,588.27 864.33,588.14 864.98,588.80 865.37,590.23" speed="8.33"/>
   </edge>
   <edge function="internal" id=":103161434_0">
      <lane disallow="tram rail_urban rail rail_electric ship" id=":103161434_0_0" index="0" length="5.03" shape="788.29,696.39 786.94,696.69 786.02,697.34 785.53,698.36 785.46,699.74" speed="6.95"/>
   </edge>
   <edge function="internal" id=":103161434_1">
      <lane disallow="tram rail_urban rail rail_electric ship" id=":103161434_1_0" index="0" length="6.23" shape="784.89,693.56 785.46,699.74" speed="8.33"/>
      <lane disallow="tram rail_urban rail rail_electric ship" id=":103161434_1_1" index="1" length="6.23" shape="781.60,693.85 782.18,700.06" speed="8.33"/>
   </edge>
   <edge function="internal" id=":103161437_0">
      <lane allow="delivery bicycle pedestrian" id=":103161437_0_0" index="0" length="7.34" shape="839.81,697.32 839.23,695.36 838.19,694.02 836.70,693.31 834.75,693.23" speed="5.56"/>
   </edge>
   <edge function="internal" id=":103161437_1">
      <lane allow="delivery bicycle pedestrian" id=":103161437_1_0" index="0" length="6.45" shape="839.81,697.32 838.22,691.07" speed="5.56"/>
   </edge>
   <edge function="internal" id=":103161437_2">
      <lane allow="delivery bicycle pedestrian" id=":103161437_2_0" index="0" length="6.30" shape="841.01,692.83 840.69,692.75 839.54,692.79 837.56,692.95 834.75,693.23" speed="5.56"/>
   </edge>
   <edge function="internal" id=":103161437_3">
      <lane allow="delivery bicycle pedestrian" id=":103161437_3_0" index="0" length="4.82" shape="841.01,692.83 839.66,693.43 838.74,693.34 838.26,692.55 838.22,691.07" speed="5.56"/>
   </edge>
   <edge function="internal" id=":103161441_0">
      <lane disallow="tram rail_urban rail rail_electric ship" id=":103161441_0_0" index="0" length="7.61" shape="846.92,713.95 839.55,715.84" speed="13.89"/>
   </edge>
   <edge function="internal" id=":103161441_1">
      <lane allow="delivery bicycle pedestrian" id=":103161441_1_0" index="0" length="3.44" shape="846.92,713.95 844.95,713.96 843.84,713.00" speed="9.72"/>
   </edge>
   <edge function="internal" id=":103161441_2">
      <lane disallow="tram rail_urban rail rail_electric ship" id=":103161441_2_0" index="0" length="2.59" shape="846.92,713.95 845.48,713.57 844.83,712.92 844.86,712.74" speed="13.89"/>
   </edge>
   <edge function="internal" id=":103161441_7">
      <lane id=":103161441_7_0" index="0" length="8.20" shape="843.84,713.00 843.32,712.54 842.03,709.69 841.08,705.42" speed="9.72"/>
   </edge>
   <edge function="internal" id=":103161441_8">
      <lane id=":103161441_8_0" index="0" length="2.23" shape="844.86,712.74 844.96,712.00 845.87,710.83" speed="13.89"/>
   </edge>
   <edge function="internal" id=":103161441_3">
      <lane allow="delivery bicycle pedestrian" id=":103161441_3_0" index="0" length="5.30" shape="838.55,709.32 839.85,708.90 840.71,708.11 841.12,706.95 841.08,705.42" speed="9.72"/>
   </edge>
   <edge function="internal" id=":103161441_4">
      <lane disallow="tram rail_urban rail rail_electric ship" id=":103161441_4_0" index="0" length="6.76" shape="838.55,709.32 844.82,707.70" speed="13.89"/>
      <lane disallow="tram rail_urban rail rail_electric ship" id=":103161441_4_1" index="1" length="6.76" shape="839.05,712.58 845.87,710.83" speed="13.89"/>
   </edge>
   <edge function="internal" id=":103161441_6">
      <lane disallow="tram rail_urban rail rail_electric ship" id=":103161441_6_0" index="0" length="2.28" shape="839.05,712.58 840.40,713.21 840.86,713.86" speed="13.89"/>
   </edge>
   <edge function="internal" id=":103161441_9">
      <lane id=":103161441_9_0" index="0" length="2.54" shape="840.86,713.86 840.93,713.96 840.65,714.84 839.55,715.84" speed="13.89"/>
   </edge>
   <edge function="internal" id=":103161445_0">
      <lane disallow="tram rail_urban rail rail_electric ship" id=":103161445_0_0" index="0" length="5.31" shape="859.89,604.57 858.72,605.72 857.73,605.98 856.94,605.35 856.33,603.83" speed="8.33"/>
   </edge>
   <edge function="internal" id=":1058682188_0">
      <lane allow="delivery bicycle pedestrian" id=":1058682188_0_0" index="0" length="4.82" shape="256.43,310.14 256.84,311.58 256.61,312.47 255.76,312.83 254.28,312.65" speed="5.56"/>
   </edge>
   <edge function="internal" id=":1058682190_0">
      <lane allow="delivery bicycle pedestrian" id=":1058682190_0_0" index="0" length="5.18" shape="265.70,294.29 264.43,293.60 263.29,293.52 262.29,294.06 261.42,295.22" speed="6.95"/>
   </edge>
   <edge function="internal" id=":1058682190_1">
      <lane disallow="tram rail_urban rail rail_electric ship" id=":1058682190_1_0" index="0" length="9.52" shape="265.70,294.29 258.20,288.43" speed="8.33"/>
   </edge>
   <edge function="internal" id=":1058682190_2">
      <lane disallow="tram rail_urban rail rail_electric ship" id=":1058682190_2_0" index="0" length="2.41" shape="265.70,294.29 265.21,292.89 265.37,291.98" speed="8.33"/>
   </edge>
   <edge function="internal" id=":1058682190_9">
      <lane id=":1058682190_9_0" index="0" length="2.41" shape="265.37,291.98 266.20,291.57 267.68,291.66" speed="8.33"/>
   </edge>
   <edge function="internal" id=":1058682190_3">
      <lane disallow="tram rail_urban rail rail_electric ship" id=":1058682190_3_0" index="0" length="9.39" shape="260.29,285.88 267.68,291.66" speed="8.33"/>
   </edge>
   <edge function="internal" id=":1058682190_4">
      <lane allow="delivery bicycle pedestrian" id=":1058682190_4_0" index="0" length="4.86" shape="260.29,285.88 261.97,287.79 262.72,289.98" speed="6.95"/>
   </edge>
   <edge function="internal" id=":1058682190_5">
      <lane disallow="tram rail_urban rail rail_electric ship" id=":1058682190_5_0" index="0" length="2.41" shape="260.29,285.88 260.72,287.30 260.52,288.20" speed="8.33"/>
   </edge>
   <edge function="internal" id=":1058682190_10">
      <lane id=":1058682190_10_0" index="0" length="5.47" shape="262.72,289.98 262.54,292.46 261.42,295.22" speed="6.95"/>
   </edge>
   <edge function="internal" id=":1058682190_11">
      <lane id=":1058682190_11_0" index="0" length="2.41" shape="260.52,288.20 259.68,288.58 258.20,288.43" speed="8.33"/>
   </edge>
   <edge function="internal" id=":1058682190_6">
      <lane disallow="tram rail_urban rail rail_electric ship" id=":1058682190_6_0" index="0" length="5.70" shape="258.52,293.64 259.20,292.03 259.37,290.63 259.04,289.43 258.20,288.43" speed="6.95"/>
   </edge>
   <edge function="internal" id=":1058682190_7">
      <lane disallow="tram rail_urban rail rail_electric ship" id=":1058682190_7_0" index="0" length="11.08" shape="258.52,293.64 260.38,291.16 262.53,290.00 264.96,290.17 267.68,291.66" speed="6.95"/>
   </edge>
   <edge function="internal" id=":1058682190_8">
      <lane allow="delivery bicycle pedestrian" id=":1058682190_8_0" index="0" length="4.82" shape="258.52,293.64 259.84,292.95 260.76,292.98 261.29,293.74 261.42,295.22" speed="5.56"/>
   </edge>
   <edge function="internal" id=":1121222876_0">
      <lane allow="delivery bicycle pedestrian" id=":1121222876_0_0" index="0" length="0.10" shape="65.13,701.20 65.16,701.17" speed="5.56"/>
   </edge>
   <edge function="internal" id=":1121222876_1">
      <lane allow="delivery bicycle pedestrian" id=":1121222876_1_0" index="0" length="2.41" shape="65.13,701.20 63.66,701.45 62.80,701.13" speed="5.56"/>
   </edge>
   <edge function="internal" id=":1121222876_4">
      <lane id=":1121222876_4_0" index="0" length="2.41" shape="62.80,701.13 62.53,700.24 62.87,698.80" speed="5.56"/>
   </edge>
   <edge function="internal" id=":1121222876_2">
      <lane allow="delivery bicycle pedestrian" id=":1121222876_2_0" index="0" length="0.10" shape="62.85,698.81 62.87,698.80" speed="5.56"/>
   </edge>
   <edge function="internal" id=":1121222876_3">
      <lane allow="delivery bicycle pedestrian" id=":1121222876_3_0" index="0" length="2.41" shape="62.85,698.81 64.32,698.53 65.19,698.83" speed="5.56"/>
   </edge>
   <edge function="internal" id=":1121222876_5">
      <lane id=":1121222876_5_0" index="0" length="2.41" shape="65.19,698.83 65.47,699.71 65.16,701.17" speed="5.56"/>
   </edge>
   <edge function="internal" id=":1227645160_0">
      <lane allow="delivery bicycle pedestrian" id=":1227645160_0_0" index="0" length="4.82" shape="40.69,126.43 41.67,127.56 41.84,128.46 41.23,129.15 39.82,129.61" speed="5.56"/>
   </edge>
   <edge function="internal" id=":1227645166_0">
      <lane allow="delivery bicycle pedestrian" id=":1227645166_0_0" index="0" length="0.62" shape="34.17,133.70 33.89,134.26" speed="5.56"/>
   </edge>
   <edge function="internal" id=":1227645166_1">
      <lane allow="delivery bicycle pedestrian" id=":1227645166_1_0" index="0" length="2.41" shape="34.17,133.70 32.92,134.52 32.00,134.58" speed="5.56"/>
   </edge>
   <edge function="internal" id=":1227645166_4">
      <lane id=":1227645166_4_0" index="0" length="2.41" shape="32.00,134.58 31.40,133.88 31.13,132.41" speed="5.56"/>
   </edge>
   <edge function="internal" id=":1227645166_2">
      <lane allow="delivery bicycle pedestrian" id=":1227645166_2_0" index="0" length="0.20" shape="31.04,132.60 31.13,132.41" speed="5.56"/>
   </edge>