<?xml version="1.0" encoding="utf-8"?><!-- generated on 10/11/17 17:48:38 by SUMO polyconvert Version 0.25.0
<?xml version="1.0" encoding="UTF-8"?>

<configuration xmlns:xsi="http://www.w3.org/2001/XMLSchema-instance" xsi:noNamespaceSchemaLocation="http://sumo.dlr.de/xsd/polyconvertConfiguration.xsd">

    <input>
        <net-file value="AC_Altstadt_historical_800.net.xml"/>
        <osm-files value="AC_Altstadt_historical_800.osm"/>
        <type-file value="osmPolyconvert.typ.xml"/>
    </input>

    <output>
        <output-file value="AC_Altstadt_historical_800.poly.xml"/>
    </output>

    <projection>
        <proj.utm value="true"/>
    </projection>

    <processing>
        <poi-layer-offset value="5"/>
    </processing>

</configuration>
-->
<additional>
   <location convBoundary="-15.59,-10.23,950.67,879.58" netOffset="-293818.85,-5628501.80" origBoundary="6.075501,50.771801,6.088800,50.779500" projParameter="+proj=utm +zone=32 +ellps=WGS84 +datum=WGS84 +units=m +no_defs"/>
   <poly color="237,199,199" fill="1" id="102338222" layer="-1.00" shape="652.46,106.81 651.67,96.45 666.11,95.98 666.14,84.89 651.62,84.42 651.41,75.71 662.31,75.75 698.57,120.43 681.93,134.33 680.31,133.38 678.24,134.92 674.30,132.42 675.15,131.12 669.62,127.44 668.68,128.58 660.02,121.48 659.57,106.34 652.46,106.81" type="amenity"/>
   <poly color="red" fill="1" id="102338222#1" layer="-1.00" shape="652.46,106.81 651.67,96.45 666.11,95.98 666.14,84.89 651.62,84.42 651.41,75.71 662.31,75.75 698.57,120.43 681.93,134.33 680.31,133.38 678.24,134.92 674.30,132.42 675.15,131.12 669.62,127.44 668.68,128.58 660.02,121.48 659.57,106.34 652.46,106.81" type="building"/>
   <poly color="181,209,209" fill="0" id="102539040" layer="-4.00" shape="309.15,477.19 355.97,519.30" type="water"/>
   <poly color="181,209,209" fill="0" id="102539041" layer="-4.00" shape="301.22,472.28 309.15,477.19" type="water"/>
   <poly color="red" fill="1" id="104794789" layer="-1.00" shape="55.95,70.39 61.74,67.86 56.44,60.71 51.67,64.80 55.95,70.39" type="building"/>
   <poly color="207,245,201" fill="1" id="10644727" layer="-2.00" shape="766.51,210.06 755.73,218.28 733.15,235.71 722.79,247.07 694.56,285.49 689.06,293.86 689.82,299.11 695.20,304.87 748.11,318.31 767.06,300.86 794.85,283.26 796.10,285.48 802.29,281.51 806.38,279.34 804.23,275.62 796.91,262.94 794.69,259.62 793.05,259.73 791.74,259.63 789.98,259.21 788.15,258.41 785.90,256.72 784.34,254.76 783.37,252.70 782.95,251.05 782.83,248.67 783.24,246.35 784.51,243.63 782.17,239.64 775.00,227.78 768.82,216.53 766.51,210.06" type="tourism"/>
   <poly color="237,199,199" fill="1" id="106642912" layer="-1.00" shape="141.95,520.02 144.89,524.72 137.35,529.74 138.93,531.84 134.91,534.63 130.89,537.41 129.54,535.59 122.17,541.13 118.20,544.49 113.15,539.23 112.38,538.43 107.59,533.04 106.47,531.91 102.70,528.11 112.96,516.58 85.54,491.61 98.35,477.37 103.94,478.15 104.08,483.40 119.05,485.29 129.57,486.61 130.15,477.59 136.07,477.54 136.21,488.43 145.98,490.68 149.11,504.16 155.06,510.30 141.95,520.02" type="amenity"/>
   <poly color="red" fill="1" id="106735509" layer="-1.00" shape="61.28,79.67 63.16,78.62 64.15,79.48 67.76,76.91 69.88,80.40 70.53,82.37 65.68,85.22 61.28,79.67" type="building"/>
   <poly color="red" fill="1" id="106735510" layer="-1.00" shape="50.10,74.85 51.57,73.73 55.95,70.39 51.67,64.80 48.42,67.28 45.90,69.20 50.10,74.85" type="building"/>
   <poly color="184,184,179" fill="1" id="108296568" layer="-1.00" shape="64.14,109.28 69.96,116.45 75.59,111.66 70.40,104.75 64.14,109.28" type="parking"/>
   <poly color="237,199,199" fill="1" id="110420915" layer="-1.00" shape="687.55,412.58 691.81,414.84 698.72,418.51 701.35,413.30 699.99,412.30 701.14,411.19 709.93,421.32 715.38,421.47 716.84,420.07 716.13,418.95 696.56,396.56 691.76,400.85 694.95,404.56 693.75,405.80 693.13,406.35 691.43,405.14 687.55,412.58" type="amenity"/>
   <poly color="red" fill="1" id="110420915#1" layer="-1.00" shape="687.55,412.58 691.81,414.84 698.72,418.51 701.35,413.30 699.99,412.30 701.14,411.19 709.93,421.32 715.38,421.47 716.84,420.07 716.13,418.95 696.56,396.56 691.76,400.85 694.95,404.56 693.75,405.80 693.13,406.35 691.43,405.14 687.55,412.58" type="building"/>
   <poly color="207,245,201" fill="1" id="113950430" layer="-2.00" shape="569.29,307.12 572.07,306.95 577.55,312.17 577.33,312.44 577.44,314.20 582.29,311.98 588.30,311.53 588.14,309.10 587.15,308.22 587.86,307.35 588.14,307.34 588.42,307.43 588.59,307.53 588.71,307.65 591.02,305.98 590.89,305.72 590.88,305.43 590.96,305.14 591.16,304.90 591.42,304.76 591.71,304.74 591.99,304.82 592.25,305.01 592.39,305.29 592.42,305.63 592.34,305.84 595.93,307.11 596.18,306.83 596.46,306.69 596.75,306.68 597.03,306.75 597.24,306.93 597.38,307.13 597.44,307.47 597.34,307.77 597.20,308.00 596.96,308.11 597.65,311.30 598.21,311.08 598.67,310.08 599.35,310.89 601.12,309.44 600.96,308.53 601.74,308.25 602.01,309.27 604.47,309.62 604.97,308.75 605.75,309.10 605.20,310.07 606.82,312.01 607.75,311.79 607.97,312.45 606.98,312.68 606.60,315.18 609.02,316.73 610.43,316.74 610.51,318.71 616.01,318.66 615.98,316.61 617.33,316.55 617.47,318.69 619.24,318.20 619.21,316.48 620.47,316.33 620.55,318.33 622.93,318.83 623.67,317.10 618.55,309.21 610.34,304.26 599.33,299.35 586.59,296.68 569.29,307.12" type="leisure"/>
   <poly color="207,245,201" fill="1" id="113954826" layer="-2.00" shape="193.71,408.39 198.36,404.33 193.64,398.96 188.99,403.03 193.71,408.39" type="leisure"/>
   <poly color="red" fill="1" id="114313105" layer="-1.00" shape="31.72,181.40 36.96,184.54 43.58,188.52 47.72,180.55 50.96,174.28 44.45,170.20 39.81,167.29 36.05,173.58 34.12,176.79 31.72,181.40" type="building"/>
   <poly color="red" fill="1" id="114313982" layer="-1.00" shape="-2.16,162.22 4.58,150.52 6.91,151.44 14.34,155.59 7.76,166.85 0.00,163.29 -2.16,162.22" type="building"/>
   <poly color="red" fill="1" id="115601379" layer="-1.00" shape="376.53,756.75 368.22,768.63 380.68,776.99 383.52,772.62 389.01,764.56 376.53,756.75" type="building"/>
   <poly color="red" fill="1" id="115601382" layer="-1.00" shape="358.41,762.17 363.45,765.49 370.00,755.59 364.96,752.27 358.41,762.17" type="building"/>
   <poly color="red" fill="1" id="115714810" layer="-1.00" shape="350.66,726.09 366.42,737.28 368.08,734.95 382.67,714.51 385.20,710.98 368.35,699.02 350.66,726.09" type="building"/>
   <poly color="237,199,199" fill="1" id="116515378" layer="-1.00" shape="335.56,373.63 345.59,359.49 348.70,361.51 352.50,363.98 344.30,374.85 342.23,377.94 335.56,373.63" type="amenity"/>
   <poly color="red" fill="1" id="116515378#1" layer="-1.00" shape="335.56,373.63 345.59,359.49 348.70,361.51 352.50,363.98 344.30,374.85 342.23,377.94 335.56,373.63" type="building"/>
   <poly color="207,245,201" fill="1" id="117038201" layer="-2.00" shape="567.16,469.30 562.07,466.18 562.17,465.78 563.76,464.04 565.02,462.19 566.27,460.93 566.98,458.49 578.65,458.42 578.94,469.20 567.16,469.30" type="leisure"/>
   <poly color="red" fill="1" id="117039193" layer="-1.00" shape="10.45,345.84 4.56,344.67 4.16,347.55 9.98,348.44 10.45,345.84" type="building"/>
   <poly color="red" fill="1" id="117465570" layer="-1.00" shape="271.95,415.33 267.52,422.93 276.99,428.99 280.61,430.97 284.90,423.79 282.32,421.75 271.95,415.33" type="building"/>
   <poly color="red" fill="1" id="118023266" layer="-1.00" shape="461.21,678.59 455.96,687.98 465.04,693.15 464.26,694.66 471.42,701.11 473.06,699.10 476.84,694.74 474.21,692.54 468.75,687.62 469.94,684.29 461.21,678.59" type="building"/>
   <poly color="red" fill="0" id="118023267" layer="-1.00" shape="20.97,827.66 14.29,805.92" type="building"/>
   <poly color="red" fill="1" id="118023268" layer="-1.00" shape="411.99,770.96 423.22,758.58 413.75,750.16 411.26,753.04 406.34,758.66 402.04,763.07 411.99,770.96" type="building"/>
   <poly color="red" fill="1" id="118023269" layer="-1.00" shape="265.15,502.88 269.67,506.25 273.83,509.35 277.16,504.88 278.32,503.33 274.02,500.13 269.60,496.84 266.82,500.61 265.15,502.88" type="building"/>
   <poly color="red" fill="1" id="122366115" layer="-1.00" shape="757.15,363.78 752.25,373.94 747.58,389.77 763.36,394.47 764.27,391.94 781.32,398.47 783.83,393.65 790.35,396.93 794.26,389.08 797.41,382.96 798.87,384.08 801.94,380.50 796.77,370.42 792.65,365.87 790.16,363.85 770.42,342.43 763.75,351.48 757.15,363.78" type="building"/>
   <poly color="237,199,255" fill="1" id="122366115#1" layer="-1.00" shape="757.15,363.78 752.25,373.94 747.58,389.77 763.36,394.47 764.27,391.94 781.32,398.47 783.83,393.65 790.35,396.93 794.26,389.08 797.41,382.96 798.87,384.08 801.94,380.50 796.77,370.42 792.65,365.87 790.16,363.85 770.42,342.43 763.75,351.48 757.15,363.78" type="shop"/>
   <poly color="237,199,199" fill="1" id="125501775" layer="-1.00" shape="527.24,304.93 533.05,304.09 531.54,301.33 527.40,293.71 523.12,297.41 514.92,303.99 514.69,305.86 527.24,304.93" type="amenity"/>
   <poly color="red" fill="1" id="125501775#1" layer="-1.00" shape="527.24,304.93 533.05,304.09 531.54,301.33 527.40,293.71 523.12,297.41 514.92,303.99 514.69,305.86 527.24,304.93" type="building"/>
   <poly color="red" fill="1" id="125501776" layer="-1.00" shape="533.05,304.09 527.24,304.93 528.27,310.03 533.41,309.45 533.05,304.09" type="building"/>
   <poly color="red" fill="1" id="126068889" layer="-1.00" shape="177.85,168.70 176.33,171.06 171.51,167.95 173.02,165.61 177.85,168.70" type="building"/>
   <poly color="red" fill="1" id="126331004" layer="-1.00" shape="267.51,281.90 269.43,283.42 274.47,287.41 281.92,278.00 283.10,276.52 276.14,271.03 267.51,281.90" type="building"/>
   <poly color="red" fill="1" id="126331005" layer="-1.00" shape="193.92,224.45 195.12,225.47 200.92,230.43 202.97,232.18 208.67,224.90 211.48,221.40 209.77,220.04 202.16,214.04 193.92,224.45" type="building"/>
   <poly color="red" fill="1" id="130992281" layer="-1.00" shape="370.75,596.41 366.79,592.78 362.63,588.97 363.57,587.95 366.53,584.71 370.89,588.71 373.62,591.21 374.65,592.16 370.75,596.41" type="building"/>
   <poly color="207,245,201" fill="0" id="131599099" layer="-2.00" shape="-10.15,88.21 -5.68,87.35 -5.57,86.68 -5.47,86.09 -9.26,82.17" type="leisure"/>
   <poly color="207,245,201" fill="0" id="131599100" layer="-2.00" shape="4.67,195.22 3.14,197.80 -2.41,209.03 -4.40,207.82 -7.02,206.78 -4.92,201.46 -8.42,200.08 -11.43,157.18 -2.16,162.22" type="leisure"/>
   <poly color="red" fill="1" id="141106351" layer="-1.00" shape="302.98,729.09 292.37,722.45 311.70,691.70 322.31,698.33 315.04,709.90 302.98,729.09" type="building"/>
   <poly color="red" fill="0" id="143229257" layer="-1.00" shape="15.26,732.48 26.72,728.98 29.25,737.23 30.60,741.51" type="building"/>
   <poly color="184,184,179" fill="0" id="143229258" layer="-1.00" shape="13.40,780.37 17.09,791.68 20.83,803.12 24.89,815.57 26.71,821.14 28.52,826.70 32.01,837.40 33.53,842.03 82.72,826.51 87.22,825.10 59.74,737.26 37.28,744.43" type="parking"/>
   <poly color="red" fill="1" id="145227926" layer="-1.00" shape="38.20,136.95 47.78,144.23 48.46,147.31 43.96,156.37 39.57,153.80 32.06,149.39 38.20,136.95" type="building"/>
   <poly color="red" fill="1" id="145228144" layer="-1.00" shape="85.70,111.53 89.25,108.68 91.10,107.06 91.83,109.38 92.48,111.41 87.22,114.33 85.70,111.53" type="building"/>
   <poly color="red" fill="1" id="146793931" layer="-1.00" shape="62.43,219.03 65.90,209.42 67.54,204.30 69.44,198.47 60.09,192.95 58.88,195.45 56.87,200.32 55.67,203.28 51.15,215.88 62.43,219.03" type="building"/>
   <poly color="red" fill="1" id="146830886" layer="-1.00" shape="150.07,332.58 151.25,331.04 154.73,326.49 148.78,319.87 142.34,326.74 150.07,332.58" type="building"/>
   <poly color="red" fill="1" id="146834103" layer="-1.00" shape="396.33,393.88 385.96,409.60 383.00,407.01 387.04,400.53 393.04,390.90 394.05,391.82 396.33,393.88" type="building"/>
   <poly color="237,199,255" fill="1" id="146834103#1" layer="-1.00" shape="396.33,393.88 385.96,409.60 383.00,407.01 387.04,400.53 393.04,390.90 394.05,391.82 396.33,393.88" type="shop"/>
   <poly color="red" fill="1" id="158847433" layer="-1.00" shape="34.12,176.79 36.05,173.58 39.81,167.29 34.31,164.76 21.69,158.96 14.34,155.59 7.76,166.85 21.22,174.45 23.26,171.21 34.12,176.79" type="building"/>
   <poly color="red" fill="0" id="163275289" layer="-1.00" shape="3.92,442.58 5.58,450.37 6.81,458.84 1.63,459.77" type="building"/>
   <poly color="184,184,179" fill="1" id="163285348" layer="-1.00" shape="640.58,681.99 643.46,684.17 648.66,676.11 661.12,682.52 670.28,662.74 658.25,656.72 656.32,660.98 649.62,657.83 650.15,656.55 644.97,653.89 627.63,644.15 621.45,652.58 627.71,656.36 635.78,661.50 626.65,672.65 637.44,679.38 640.58,681.99" type="parking"/>
   <poly color="red" fill="1" id="165375364" layer="-1.00" shape="82.77,211.97 94.39,216.89 104.02,220.96 109.82,207.31 108.16,206.53 112.01,197.33 107.67,194.01 98.70,189.38 97.68,192.94 91.59,190.44 90.26,193.49 86.18,192.19 83.76,200.24 87.41,201.54 82.77,211.97" type="building"/>
   <poly color="red" fill="1" id="174316978" layer="-1.00" shape="713.51,131.20 734.94,114.16 737.30,117.64 744.51,127.50 746.35,130.51 724.14,144.45 713.51,131.20" type="building"/>
   <poly color="184,184,179" fill="1" id="175377774" layer="-1.00" shape="298.11,659.71 306.47,652.33 315.11,644.34 303.35,632.66 295.79,640.05 286.69,649.03 298.11,659.71" type="parking"/>
   <poly color="red" fill="1" id="175891798" layer="-1.00" shape="119.05,485.29 104.08,483.40 103.94,478.15 105.93,466.67 113.69,468.22 120.72,469.63 119.05,485.29" type="building"/>
   <poly color="207,245,201" fill="1" id="182347868" layer="-2.00" shape="267.86,160.52 272.84,164.58 298.83,163.94 302.36,163.41 303.02,156.51 300.92,132.82 282.87,131.44 263.86,132.53 264.17,143.65 274.11,154.55 267.86,160.52" type="tourism"/>
   <poly color="red" fill="1" id="184638907" layer="-1.00" shape="309.72,205.21 317.28,213.25 321.92,209.68 319.85,207.19 317.07,203.85 309.72,205.21" type="building"/>
   <poly color="red" fill="1" id="184638908" layer="-1.00" shape="319.63,160.39 310.47,160.90 310.27,158.94 304.16,159.06 304.80,174.95 313.72,174.59 320.46,174.32 319.63,160.39" type="building"/>
   <poly color="red" fill="1" id="184638909" layer="-1.00" shape="284.28,188.00 294.76,187.54 294.45,180.57 294.14,175.30 294.04,171.30 283.56,171.77 284.28,188.00" type="building"/>
   <poly color="red" fill="1" id="184638910" layer="-1.00" shape="341.63,240.10 331.97,251.45 343.69,262.40 352.62,252.41 349.62,249.00 341.63,240.10" type="building"/>
   <poly color="red" fill="1" id="184638911" layer="-1.00" shape="317.07,203.85 314.92,194.99 309.07,195.84 306.90,196.16 309.72,205.21 317.07,203.85" type="building"/>
   <poly color="red" fill="1" id="184638912" layer="-1.00" shape="317.28,213.25 302.89,224.30 309.88,230.83 316.93,237.42 328.40,226.59 317.28,213.25" type="building"/>
   <poly color="red" fill="1" id="184638913" layer="-1.00" shape="340.30,228.35 337.36,225.35 333.61,221.51 328.40,226.59 335.09,233.41 340.30,228.35" type="building"/>
   <poly color="red" fill="1" id="184638914" layer="-1.00" shape="335.09,233.41 341.63,240.10 346.84,235.04 344.02,232.16 340.30,228.35 335.09,233.41" type="building"/>
   <poly color="red" fill="1" id="184638915" layer="-1.00" shape="352.63,182.91 342.46,173.21 353.39,164.86 363.95,176.44 371.95,185.18 363.59,194.42 352.63,182.91" type="building"/>
   <poly color="red" fill="1" id="184638916" layer="-1.00" shape="355.26,243.54 351.64,239.89 346.84,235.04 341.63,240.10 349.62,249.00 355.26,243.54" type="building"/>
   <poly color="red" fill="1" id="184638917" layer="-1.00" shape="338.41,165.49 347.39,156.81 342.37,151.87 340.14,145.50 336.91,136.11 324.32,136.60 321.14,136.84 321.42,147.56 323.61,147.59 324.15,160.15 338.41,165.49" type="building"/>
   <poly color="red" fill="1" id="184638918" layer="-1.00" shape="355.79,255.59 361.36,261.19 363.57,258.69 366.47,255.56 364.79,253.74 361.43,250.13 355.79,255.59" type="building"/>
   <poly color="red" fill="1" id="184638919" layer="-1.00" shape="373.44,228.24 377.34,231.57 382.67,236.11 388.87,229.17 385.35,225.87 380.50,221.30 373.44,228.24" type="building"/>
   <poly color="red" fill="1" id="184638920" layer="-1.00" shape="377.63,218.61 369.23,210.70 362.03,218.49 371.00,225.66 373.79,222.69 377.63,218.61" type="building"/>
   <poly color="red" fill="1" id="184867637" layer="-1.00" shape="107.77,231.76 93.01,224.58 83.99,220.18 82.57,223.09 80.29,221.98 77.19,228.31 81.67,230.50 75.50,243.10 102.01,255.99 106.08,247.67 101.15,245.28 107.77,231.76" type="building"/>
   <poly color="140,196,107" fill="0" id="187280086" layer="-4.00" shape="28.79,151.47 40.96,158.16" type="natural"/>
   <poly color="140,196,107" fill="0" id="187280087" layer="-4.00" shape="25.54,156.37 33.61,160.95" type="natural"/>
   <poly color="140,196,107" fill="0" id="187280088" layer="-4.00" shape="-1.07,134.59 4.60,137.81 10.28,141.03 15.96,144.24" type="natural"/>
   <poly color="140,196,107" fill="0" id="187280090" layer="-4.00" shape="-4.46,140.15 1.21,143.37 6.89,146.58 12.57,149.80" type="natural"/>
   <poly color="140,196,107" fill="1" id="187280092" layer="-4.00" shape="-12.84,116.96" type="natural"/>
   <poly color="red" fill="1" id="188673952" layer="-1.00" shape="287.31,336.51 292.91,328.92 289.96,326.58 284.22,333.75 287.31,336.51" type="building"/>
   <poly color="red" fill="1" id="189734861" layer="-1.00" shape="540.50,140.72 561.38,155.96 576.48,135.39 555.61,120.14 540.50,140.72" type="building"/>
   <poly color="red" fill="1" id="192120084" layer="-1.00" shape="730.91,298.79 730.21,296.97 729.89,294.25 730.18,291.51 731.03,288.26 732.86,285.23 735.20,283.09 736.94,282.01 738.75,281.61 741.11,282.30 742.67,283.82 743.30,286.27 742.59,289.48 741.13,292.43 738.90,295.58 735.96,298.13 733.74,299.53 731.98,299.54 730.91,298.79" type="building"/>
   <poly color="red" fill="1" id="193167161" layer="-1.00" shape="243.67,512.39 240.92,510.31 243.33,506.29 229.17,496.26 226.10,500.27 232.62,504.96 230.16,508.14 241.32,515.75 243.67,512.39" type="building"/>
   <poly color="237,199,199" fill="0" id="193168368" layer="-1.00" shape="724.64,268.73 734.04,282.27" type="amenity"/>
   <poly color="237,199,199" fill="0" id="193168369" layer="-1.00" shape="721.69,271.77 731.66,285.64" type="amenity"/>
   <poly color="237,199,199" fill="0" id="193168370" layer="-1.00" shape="719.33,275.35 728.92,288.81" type="amenity"/>
   <poly color="237,199,199" fill="0" id="193168371" layer="-1.00" shape="716.54,278.93 726.91,292.51" type="amenity"/>
   <poly color="237,199,199" fill="0" id="193168372" layer="-1.00" shape="727.77,266.45 738.16,281.05" type="amenity"/>
   <poly color="237,199,199" fill="0" id="193168373" layer="-1.00" shape="714.81,282.96 721.89,292.42" type="amenity"/>
   <poly color="237,199,199" fill="0" id="193168374" layer="-1.00" shape="731.13,263.08 740.36,276.89 750.44,287.31" type="amenity"/>
   <poly color="red" fill="1" id="194190213" layer="-1.00" shape="48.01,102.43 36.85,106.91 27.43,110.67 23.10,99.84 42.89,91.74 48.01,102.43" type="building"/>
   <poly color="red" fill="1" id="194190214" layer="-1.00" shape="27.43,110.67 18.11,114.41 8.59,118.21 3.95,107.71 23.10,99.84 27.43,110.67" type="building"/>
   <poly color="red" fill="1" id="194190215" layer="-1.00" shape="42.89,91.74 51.03,85.37 56.22,92.04 53.63,93.85 55.24,96.74 50.87,100.18 48.01,102.43 42.89,91.74" type="building"/>
   <poly color="red" fill="1" id="194190216" layer="-1.00" shape="9.91,124.68 11.39,122.80 26.23,132.07 27.79,133.04 21.87,143.42 11.80,137.74 4.83,133.81 9.91,124.68" type="building"/>
   <poly color="red" fill="1" id="194190220" layer="-1.00" shape="32.06,149.39 27.95,146.99 25.42,145.50 21.87,143.42 27.79,133.04 28.91,131.08 32.57,133.25 36.11,135.36 38.20,136.95 32.06,149.39" type="building"/>
   <poly color="red" fill="1" id="194190221" layer="-1.00" shape="-5.08,144.55 0.35,147.74 4.58,150.52 -2.16,162.22 -11.43,157.18 -5.08,144.55" type="building"/>
   <poly color="red" fill="1" id="194190223" layer="-1.00" shape="-11.43,157.18 -9.32,142.06 -5.08,144.55 -11.43,157.18" type="building"/>
   <poly color="red" fill="1" id="194192655" layer="-1.00" shape="-11.69,57.85 -10.69,58.87 -7.77,61.87 -8.83,62.36 -11.69,57.85" type="building"/>
   <poly color="red" fill="1" id="194192656" layer="-1.00" shape="60.85,88.70 56.22,92.04 51.03,85.37 53.95,83.02 55.81,81.83 60.85,88.70" type="building"/>
   <poly color="red" fill="1" id="194192657" layer="-1.00" shape="45.90,69.20 43.17,71.28 39.85,74.00 44.51,79.10 49.02,75.67 50.10,74.85 45.90,69.20" type="building"/>
   <poly color="red" fill="0" id="194192658" layer="-1.00" shape="-14.24,50.59 -15.04,51.52" type="building"/>
   <poly color="red" fill="1" id="194192659" layer="-1.00" shape="1.24,73.80 -2.66,69.13 -8.83,62.36 -9.26,82.17 -3.49,77.57 1.24,73.80" type="building"/>
   <poly color="red" fill="0" id="194192660" layer="-1.00" shape="-11.39,102.71 -6.59,100.95 -8.40,94.48 -10.15,88.21" type="building"/>
   <poly color="red" fill="1" id="194192666" layer="-1.00" shape="-10.59,48.59 -11.89,47.29 -15.19,43.29 -7.63,36.17 -6.64,35.24 -5.34,34.02 -1.96,40.10 -10.59,48.59" type="building"/>
   <poly color="red" fill="1" id="194192670" layer="-1.00" shape="-1.96,40.10 1.41,45.35 -7.51,53.27 -8.61,52.11 -11.30,49.29 -10.59,48.59 -1.96,40.10" type="building"/>
   <poly color="red" fill="1" id="194364937" layer="-1.00" shape="539.77,717.95 536.47,722.02 533.81,726.94 541.35,731.11 542.80,727.15 544.54,727.92 542.89,731.77 546.29,733.83 550.94,722.23 539.77,717.95" type="building"/>
   <poly color="red" fill="1" id="194685388" layer="-1.00" shape="66.84,49.84 65.51,48.05 59.44,39.86 48.75,47.76 47.51,48.67 49.81,51.77 54.82,58.53 66.84,49.84" type="building"/>
   <poly color="red" fill="1" id="194687765" layer="-1.00" shape="184.36,61.20 183.50,55.32 182.29,47.08 191.21,46.42 192.47,55.86 190.78,55.92 191.15,60.54 184.36,61.20" type="building"/>
   <poly color="red" fill="1" id="194827427" layer="-1.00" shape="120.18,190.22 118.10,188.42 112.01,197.33 107.67,194.01 123.88,174.00 126.35,177.65 128.29,180.78 120.18,190.22" type="building"/>
   <poly color="red" fill="1" id="194829825" layer="-1.00" shape="51.26,293.91 59.84,295.68 67.19,287.74 56.92,277.05 46.83,266.79 45.87,275.14 49.42,279.88 51.26,293.91" type="building"/>
   <poly color="red" fill="1" id="194831362" layer="-1.00" shape="27.29,255.76 28.78,248.11 27.66,246.15 16.33,242.04 13.69,241.39 11.77,246.48 14.20,247.54 13.39,249.75 16.44,251.00 15.77,253.61 27.29,255.76" type="building"/>
   <poly color="red" fill="1" id="194831565" layer="-1.00" shape="8.84,398.27 8.71,401.07 8.41,404.31 1.19,401.72 8.84,398.27" type="building"/>
   <poly color="red" fill="1" id="194831677" layer="-1.00" shape="242.32,158.08 256.25,166.35 248.54,177.69 245.88,176.00 234.52,168.80 242.32,158.08" type="building"/>
   <poly color="red" fill="1" id="194831678" layer="-1.00" shape="234.52,168.80 224.57,162.49 232.16,151.83 242.32,158.08 234.52,168.80" type="building"/>
   <poly color="red" fill="1" id="194831680" layer="-1.00" shape="224.57,162.49 211.86,154.43 219.45,143.91 232.16,151.83 224.57,162.49" type="building"/>
   <poly color="red" fill="1" id="194832632" layer="-1.00" shape="213.32,110.99 216.16,110.28 219.65,109.40 234.29,105.93 235.46,131.19 228.63,131.48 211.27,132.53 210.13,126.15 216.59,124.13 213.32,110.99" type="building"/>
   <poly color="red" fill="1" id="194832633" layer="-1.00" shape="201.49,128.12 203.00,137.03 197.67,145.44 190.34,140.24 189.83,137.70 188.50,131.02 201.49,128.12" type="building"/>
   <poly color="237,199,255" fill="1" id="194832633#1" layer="-1.00" shape="201.49,128.12 203.00,137.03 197.67,145.44 190.34,140.24 189.83,137.70 188.50,131.02 201.49,128.12" type="shop"/>
   <poly color="207,245,201" fill="1" id="195193905" layer="-2.00" shape="522.37,828.21 539.82,819.77 547.40,835.34 529.94,843.79 522.37,828.21" type="leisure"/>
   <poly color="red" fill="1" id="195193910" layer="-1.00" shape="533.37,852.80 529.29,854.85 535.84,857.89 533.37,852.80" type="building"/>
   <poly color="red" fill="1" id="197522626" layer="-1.00" shape="51.15,215.88 47.46,234.74 56.26,237.75 58.16,238.09 62.43,219.03 51.15,215.88" type="building"/>
   <poly color="237,199,255" fill="1" id="197522626#1" layer="-1.00" shape="51.15,215.88 47.46,234.74 56.26,237.75 58.16,238.09 62.43,219.03 51.15,215.88" type="shop"/>
   <poly color="red" fill="1" id="199109205" layer="-1.00" shape="284.86,339.73 287.31,336.51 284.22,333.75 280.62,338.57 282.71,340.32 283.68,338.99 284.86,339.73" type="building"/>
   <poly color="red" fill="1" id="199109206" layer="-1.00" shape="292.64,348.26 293.35,348.89 292.82,349.44 294.10,350.45 298.56,353.77 299.00,352.98 300.59,354.16 303.43,350.52 301.55,349.02 303.42,346.68 305.30,348.17 305.69,348.55 308.65,344.68 306.64,343.24 307.38,342.31 304.55,340.41 301.95,338.33 301.28,338.03 301.06,338.35 300.25,337.71 293.31,346.50 293.80,346.89 292.64,348.26" type="building"/>
   <poly color="207,245,201" fill="1" id="199109207" layer="-2.00" shape="292.91,328.92 287.31,336.51 284.86,339.73 283.86,341.05 287.12,343.50 288.01,342.23 288.91,342.99 287.98,344.15 291.43,346.99 292.35,345.77 293.31,346.50 300.25,337.71 301.06,338.35 301.28,338.03 301.95,338.33 303.30,336.48 292.91,328.92" type="leisure"/>
   <poly color="red" fill="1" id="199124595" layer="-1.00" shape="545.50,19.29 540.92,19.82 540.39,33.17 545.68,32.37 550.51,31.37 550.25,19.58 550.10,18.38 546.69,18.07 545.50,19.29" type="building"/>
   <poly color="red" fill="0" id="199124596" layer="-1.00" shape="569.75,10.41 585.67,6.31" type="building"/>
   <poly color="red" fill="0" id="199124859" layer="-1.00" shape="585.67,6.31 599.26,3.89" type="building"/>
   <poly color="red" fill="1" id="199546264" layer="-1.00" shape="162.42,75.65 161.90,69.19 165.24,69.26 173.58,68.82 174.28,73.34 162.42,75.65" type="building"/>
   <poly color="red" fill="1" id="199546265" layer="-1.00" shape="162.51,85.63 165.06,94.85 167.13,94.44 177.25,92.38 175.97,84.10 162.51,85.63" type="building"/>
   <poly color="red" fill="1" id="199546266" layer="-1.00" shape="175.97,84.10 175.57,81.52 174.28,73.34 162.42,75.65 161.87,81.99 162.51,85.63 175.97,84.10" type="building"/>
   <poly color="red" fill="1" id="199547651" layer="-1.00" shape="124.94,105.37 125.92,105.05 134.76,102.19 131.13,89.69 120.49,93.75 124.94,105.37" type="building"/>
   <poly color="237,199,255" fill="1" id="199547651#1" layer="-1.00" shape="124.94,105.37 125.92,105.05 134.76,102.19 131.13,89.69 120.49,93.75 124.94,105.37" type="shop"/>
   <poly color="red" fill="1" id="203005032" layer="-1.00" shape="156.14,38.15 161.36,37.41 168.09,36.47 170.23,47.73 161.98,48.53 158.51,48.98 156.14,38.15" type="building"/>
   <poly color="red" fill="1" id="203005036" layer="-1.00" shape="153.76,68.30 152.27,61.01 160.22,60.05 161.04,65.02 161.90,69.19 162.42,75.65 154.87,74.62 153.76,68.30" type="building"/>
   <poly color="red" fill="1" id="203005040" layer="-1.00" shape="158.51,48.98 150.35,50.10 148.68,40.31 148.36,38.59 156.14,38.15 158.51,48.98" type="building"/>
   <poly color="red" fill="1" id="203295733" layer="-1.00" shape="681.62,174.77 677.54,180.60 669.46,175.76 666.33,180.83 657.90,193.87 655.97,192.82 652.78,198.00 649.71,203.37 647.74,204.58 648.25,207.06 644.70,212.04 644.90,217.11 635.23,230.99 630.05,242.08 634.89,245.66 648.96,252.65 652.10,247.30 655.60,249.30 657.44,246.84 664.21,250.74 668.78,247.29 672.89,239.80 668.53,237.74 670.49,233.67 667.93,232.04 672.98,224.10 663.42,218.67 665.78,214.48 675.66,220.14 677.85,216.96 680.36,213.58 676.31,211.08 678.45,209.14 679.17,206.55 683.51,209.55 686.95,205.37 688.36,203.28 684.26,200.10 686.12,198.36 686.96,196.41 691.31,198.93 697.69,190.66 689.29,185.68 693.72,179.27 699.86,169.85 694.61,166.31 689.14,162.69 681.62,174.77" type="building"/>
   <poly color="128,255,128" fill="1" id="203295733#1" layer="-1.00" shape="681.62,174.77 677.54,180.60 669.46,175.76 666.33,180.83 657.90,193.87 655.97,192.82 652.78,198.00 649.71,203.37 647.74,204.58 648.25,207.06 644.70,212.04 644.90,217.11 635.23,230.99 630.05,242.08 634.89,245.66 648.96,252.65 652.10,247.30 655.60,249.30 657.44,246.84 664.21,250.74 668.78,247.29 672.89,239.80 668.53,237.74 670.49,233.67 667.93,232.04 672.98,224.10 663.42,218.67 665.78,214.48 675.66,220.14 677.85,216.96 680.36,213.58 676.31,211.08 678.45,209.14 679.17,206.55 683.51,209.55 686.95,205.37 688.36,203.28 684.26,200.10 686.12,198.36 686.96,196.41 691.31,198.93 697.69,190.66 689.29,185.68 693.72,179.27 699.86,169.85 694.61,166.31 689.14,162.69 681.62,174.77" type="historic"/>
   <poly color="207,245,201" fill="1" id="203295733#2" layer="-2.00" shape="681.62,174.77 677.54,180.60 669.46,175.76 666.33,180.83 657.90,193.87 655.97,192.82 652.78,198.00 649.71,203.37 647.74,204.58 648.25,207.06 644.70,212.04 644.90,217.11 635.23,230.99 630.05,242.08 634.89,245.66 648.96,252.65 652.10,247.30 655.60,249.30 657.44,246.84 664.21,250.74 668.78,247.29 672.89,239.80 668.53,237.74 670.49,233.67 667.93,232.04 672.98,224.10 663.42,218.67 665.78,214.48 675.66,220.14 677.85,216.96 680.36,213.58 676.31,211.08 678.45,209.14 679.17,206.55 683.51,209.55 686.95,205.37 688.36,203.28 684.26,200.10 686.12,198.36 686.96,196.41 691.31,198.93 697.69,190.66 689.29,185.68 693.72,179.27 699.86,169.85 694.61,166.31 689.14,162.69 681.62,174.77" type="leisure"/>