<?xml version="1.0" encoding="utf-8"?><!-- generated on 10/11/17 17:48:49 by SUMO polyconvert Version 0.25.0
<?xml version="1.0" encoding="UTF-8"?>

<configuration xmlns:xsi="http://www.w3.org/2001/XMLSchema-instance" xsi:noNamespaceSchemaLocation="http://sumo.dlr.de/xsd/polyconvertConfiguration.xsd">

    <input>
        <net-file value="AC_GruenWeg_industrial_800.net.xml"/>
        <osm-files value="AC_GruenWeg_industrial_800.osm"/>
        <type-file value="osmPolyconvert.typ.xml"/>
    </input>

    <output>
        <output-file value="AC_GruenWeg_industrial_800.poly.xml"/>
    </output>

    <projection>
        <proj.utm value="true"/>
    </projection>

    <processing>
        <poi-layer-offset value="5"/>
    </processing>

</configuration>
-->
<additional>
   <location convBoundary="-3.85,-8.49,801.76,772.88" netOffset="-295743.31,-5629932.47" origBoundary="6.102100,50.785303,6.113198,50.792097" projParameter="+proj=utm +zone=32 +ellps=WGS84 +datum=WGS84 +units=m +no_defs"/>
   <poly color="red" fill="1" id="106222064" layer="-1.00" shape="-3.85,104.04" type="building"/>
   <poly color="red" fill="0" id="106222067" layer="-1.00" shape="-3.85,104.04 17.48,67.67" type="building"/>
   <poly color="184,184,179" fill="1" id="106223157" layer="-1.00" shape="54.27,253.51 38.77,238.53 4.45,155.38 18.09,169.11 40.67,195.79 37.36,198.58 44.82,207.39 66.83,188.87 91.05,224.10 54.27,253.51" type="parking"/>
   <poly color="red" fill="1" id="112393010" layer="-1.00" shape="288.91,628.11 308.36,610.37 307.04,608.93 299.58,600.80 297.18,598.18 277.73,615.93 278.46,616.72 288.91,628.11" type="building"/>
   <poly color="red" fill="1" id="112393011" layer="-1.00" shape="309.82,606.39 311.07,607.75 318.58,600.88 307.54,588.84 300.02,595.71 302.36,598.26 309.82,606.39" type="building"/>
   <poly color="red" fill="1" id="112393012" layer="-1.00" shape="307.04,608.93 309.82,606.39 302.36,598.26 299.58,600.80 307.04,608.93" type="building"/>
   <poly color="red" fill="1" id="112393014" layer="-1.00" shape="279.07,638.85 289.79,629.08 288.91,628.11 278.46,616.72 267.74,626.50 279.07,638.85" type="building"/>
   <poly color="red" fill="0" id="115990096" layer="-1.00" shape="24.67,413.28 8.76,406.41 11.98,398.98" type="building"/>
   <poly color="237,199,255" fill="0" id="115990096#1" layer="-1.00" shape="24.67,413.28 8.76,406.41 11.98,398.98" type="shop"/>
   <poly color="red" fill="1" id="115991069" layer="-1.00" shape="63.30,660.32 84.76,676.89 85.55,675.88 88.21,677.94 87.23,679.19 99.34,688.55 100.48,687.08 103.25,689.22 109.75,680.85 106.94,678.68 141.50,634.15 144.17,636.21 150.62,627.91 148.05,625.91 148.94,624.75 136.68,615.29 135.84,616.37 133.17,614.32 133.94,613.33 112.63,596.87 107.79,603.11 109.17,604.17 106.70,607.34 105.25,606.20 70.58,650.85 72.04,651.99 69.69,655.01 68.27,653.91 63.30,660.32" type="building"/>
   <poly color="red" fill="1" id="115991072" layer="-1.00" shape="59.32,751.01 76.23,764.07 84.33,753.62 67.42,740.57 59.32,751.01" type="building"/>
   <poly color="red" fill="0" id="115991075" layer="-1.00" shape="107.06,750.09 124.98,763.91 130.01,757.44 126.45,754.69 130.81,749.07 128.45,747.25 130.36,744.80 127.15,742.32 112.25,730.81 105.87,725.88 84.33,753.62 76.23,764.07" type="building"/>
   <poly color="red" fill="1" id="115991078" layer="-1.00" shape="44.95,683.86 37.00,694.08 68.64,718.59 76.59,708.37 44.95,683.86" type="building"/>
   <poly color="red" fill="0" id="115991082" layer="-1.00" shape="32.71,739.81 54.42,757.85 59.32,751.01 67.42,740.57 68.66,738.98 67.05,737.74 71.03,732.60 68.14,730.37 67.46,731.24 65.84,729.99 67.43,727.95 63.20,724.68 57.04,732.62 28.92,688.43 24.62,685.11 23.06,687.11 21.38,685.82 22.09,684.91 20.37,683.28" type="building"/>
   <poly color="red" fill="1" id="115993279" layer="-1.00" shape="210.58,619.11 216.91,626.53 224.15,620.40 217.83,612.98 210.58,619.11" type="building"/>
   <poly color="red" fill="1" id="115993280" layer="-1.00" shape="223.02,609.02 241.17,628.42 293.85,579.42 275.70,560.01 240.04,593.19 223.02,609.02" type="building"/>
   <poly color="red" fill="1" id="115993281" layer="-1.00" shape="188.50,753.48 209.31,754.98 210.62,736.67 189.81,735.18 188.50,753.48" type="building"/>
   <poly color="red" fill="1" id="115993284" layer="-1.00" shape="167.58,751.99 222.81,755.95 209.31,754.98 188.50,753.48 167.58,751.99" type="building"/>
   <poly color="237,199,255" fill="1" id="115993284#1" layer="-1.00" shape="167.58,751.99 222.81,755.95 209.31,754.98 188.50,753.48 167.58,751.99" type="shop"/>
   <poly color="red" fill="1" id="115993288" layer="-1.00" shape="275.70,560.01 270.84,554.82 235.17,587.99 240.04,593.19 275.70,560.01" type="building"/>
   <poly color="red" fill="1" id="115993289" layer="-1.00" shape="185.64,705.34 196.82,710.27 195.35,713.56 206.58,718.52 208.08,715.14 219.65,720.24 221.21,716.73 232.92,690.32 182.37,668.02 177.70,678.55 188.64,683.37 194.41,685.91 191.39,692.71 185.58,690.16 182.90,696.17 188.59,698.68 185.64,705.34" type="building"/>
   <poly color="237,199,255" fill="1" id="115993289#1" layer="-1.00" shape="185.64,705.34 196.82,710.27 195.35,713.56 206.58,718.52 208.08,715.14 219.65,720.24 221.21,716.73 232.92,690.32 182.37,668.02 177.70,678.55 188.64,683.37 194.41,685.91 191.39,692.71 185.58,690.16 182.90,696.17 188.59,698.68 185.64,705.34" type="shop"/>
   <poly color="red" fill="1" id="115993290" layer="-1.00" shape="186.88,663.34 231.75,682.78 233.35,679.12 235.48,680.05 240.99,667.40 230.88,663.02 231.80,660.90 194.90,644.92 186.88,663.34" type="building"/>
   <poly color="237,199,255" fill="1" id="115993290#1" layer="-1.00" shape="186.88,663.34 231.75,682.78 233.35,679.12 235.48,680.05 240.99,667.40 230.88,663.02 231.80,660.90 194.90,644.92 186.88,663.34" type="shop"/>
   <poly color="red" fill="1" id="115993292" layer="-1.00" shape="234.16,646.88 248.88,662.92 265.78,647.50 258.35,639.41 251.06,631.45 234.16,646.88" type="building"/>
   <poly color="red" fill="1" id="115993837" layer="-1.00" shape="107.78,512.49 194.51,614.61 209.38,602.05 206.74,598.94 122.64,499.92 107.78,512.49" type="building"/>
   <poly color="red" fill="1" id="115993838" layer="-1.00" shape="216.74,570.76 240.57,533.41 224.98,515.05 226.45,513.83 219.08,505.14 201.67,519.85 202.39,520.69 185.99,534.55 216.74,570.76" type="building"/>
   <poly color="red" fill="1" id="115993839" layer="-1.00" shape="175.07,450.63 177.14,453.04 206.26,487.13 208.75,490.05 218.66,481.63 206.67,467.59 206.98,464.87 205.03,462.59 202.74,462.77 185.09,442.12 175.07,450.63" type="building"/>
   <poly color="237,199,255" fill="1" id="115993839#1" layer="-1.00" shape="175.07,450.63 177.14,453.04 206.26,487.13 208.75,490.05 218.66,481.63 206.67,467.59 206.98,464.87 205.03,462.59 202.74,462.77 185.09,442.12 175.07,450.63" type="shop"/>
   <poly color="red" fill="1" id="115993840" layer="-1.00" shape="115.92,492.03 122.64,499.92 206.74,598.94 221.52,586.45 225.59,581.18 216.74,570.76 185.99,534.55 177.91,525.05 181.56,521.96 165.39,502.94 156.53,510.42 130.47,479.73 115.92,492.03" type="building"/>
   <poly color="red" fill="1" id="115993841" layer="-1.00" shape="206.26,487.13 177.14,453.04 156.31,470.75 175.77,493.54 173.65,495.34 178.09,500.53 180.66,498.35 185.87,504.45 206.26,487.13" type="building"/>
   <poly color="red" fill="1" id="115994016" layer="-1.00" shape="35.98,478.44 80.69,498.06 91.68,473.16 54.73,456.95 59.33,446.51 51.58,443.11 35.98,478.44" type="building"/>
   <poly color="red" fill="1" id="115994017" layer="-1.00" shape="12.35,524.45 47.43,581.35 52.07,570.72 35.09,563.35 37.48,557.85 42.34,559.96 44.43,555.17 39.54,553.04 42.00,547.39 36.34,544.93 33.79,550.75 18.33,544.03 24.57,529.74 12.35,524.45" type="building"/>
   <poly color="red" fill="1" id="115994021" layer="-1.00" shape="62.73,440.37 104.78,471.47 121.74,448.69 112.62,441.93 115.99,437.40 88.77,417.25 86.52,420.28 80.81,416.06 62.73,440.37" type="building"/>
   <poly color="237,199,255" fill="1" id="115994021#1" layer="-1.00" shape="62.73,440.37 104.78,471.47 121.74,448.69 112.62,441.93 115.99,437.40 88.77,417.25 86.52,420.28 80.81,416.06 62.73,440.37" type="shop"/>
   <poly color="red" fill="1" id="115994022" layer="-1.00" shape="238.37,465.14 249.14,477.65 255.13,472.53 244.37,460.01 238.37,465.14" type="building"/>
   <poly color="237,199,255" fill="1" id="115994022#1" layer="-1.00" shape="238.37,465.14 249.14,477.65 255.13,472.53 244.37,460.01 238.37,465.14" type="shop"/>
   <poly color="red" fill="1" id="115994024" layer="-1.00" shape="206.50,428.73 215.19,439.37 241.93,417.64 239.00,414.05 234.17,417.97 228.42,410.92 206.50,428.73" type="building"/>
   <poly color="237,199,255" fill="1" id="115994024#1" layer="-1.00" shape="206.50,428.73 215.19,439.37 241.93,417.64 239.00,414.05 234.17,417.97 228.42,410.92 206.50,428.73" type="shop"/>
   <poly color="red" fill="1" id="115994025" layer="-1.00" shape="98.99,396.83 102.77,401.27 110.90,410.84 130.64,434.04 151.60,416.32 155.22,420.58 161.27,415.47 134.60,384.10 129.65,378.27 129.07,377.60 122.08,376.99 110.39,386.88 107.58,383.58 103.87,386.72 106.83,390.20 98.99,396.83" type="building"/>
   <poly color="237,199,199" fill="1" id="115994028" layer="-1.00" shape="176.65,398.89 194.73,420.08 197.51,417.71 200.20,415.44 182.12,394.24 179.19,396.72 176.65,398.89" type="amenity"/>
   <poly color="red" fill="1" id="115994028#1" layer="-1.00" shape="176.65,398.89 194.73,420.08 197.51,417.71 200.20,415.44 182.12,394.24 179.19,396.72 176.65,398.89" type="building"/>
   <poly color="red" fill="1" id="115994029" layer="-1.00" shape="16.06,515.80 29.21,521.45 29.82,520.03 76.33,540.00 89.46,509.59 43.30,489.76 34.15,510.95 20.66,505.17 16.06,515.80" type="building"/>
   <poly color="red" fill="1" id="115994191" layer="-1.00" shape="118.11,310.95 140.41,340.13 154.71,329.26 132.42,300.08 118.11,310.95" type="building"/>
   <poly color="237,199,255" fill="1" id="115994191#1" layer="-1.00" shape="118.11,310.95 140.41,340.13 154.71,329.26 132.42,300.08 118.11,310.95" type="shop"/>
   <poly color="red" fill="1" id="115994192" layer="-1.00" shape="206.24,371.78 215.20,383.62 235.24,368.52 230.08,361.71 227.73,363.50 224.09,358.71 220.53,361.39 220.34,361.15 206.24,371.78" type="building"/>
   <poly color="red" fill="1" id="115994693" layer="-1.00" shape="562.77,683.19 545.51,694.76 550.15,701.66 567.42,690.09 562.77,683.19" type="building"/>
   <poly color="red" fill="1" id="115994694" layer="-1.00" shape="674.36,644.46 686.28,657.62 699.40,645.79 687.48,632.63 684.68,635.16 674.36,644.46" type="building"/>
   <poly color="red" fill="1" id="115994695" layer="-1.00" shape="699.22,682.28 712.71,697.37 730.48,681.56 716.99,666.46 699.22,682.28" type="building"/>
   <poly color="237,199,255" fill="1" id="115994695#1" layer="-1.00" shape="699.22,682.28 712.71,697.37 730.48,681.56 716.99,666.46 699.22,682.28" type="shop"/>
   <poly color="red" fill="0" id="115994697" layer="-1.00" shape="776.44,540.39 775.02,541.63 770.13,545.92 757.61,556.85 753.78,560.21 767.50,575.82 779.90,589.92" type="building"/>
   <poly color="red" fill="1" id="115994698" layer="-1.00" shape="722.65,661.35 743.35,685.37 753.18,676.95 732.48,652.93 725.68,658.75 722.65,661.35" type="building"/>
   <poly color="red" fill="1" id="115994699" layer="-1.00" shape="593.34,747.79 569.55,712.44 561.18,718.04 550.15,701.66 545.51,694.76 520.31,711.62 593.34,747.79" type="building"/>
   <poly color="red" fill="1" id="115994701" layer="-1.00" shape="651.17,708.74 648.63,710.43 643.38,713.94 641.27,710.82 615.81,727.87 618.08,731.23 593.34,747.79 674.98,744.11 651.17,708.74" type="building"/>
   <poly color="red" fill="1" id="115994702" layer="-1.00" shape="657.83,704.28 683.19,741.97 676.53,746.43 674.98,744.11 651.17,708.74 657.83,704.28" type="building"/>
   <poly color="red" fill="1" id="115994703" layer="-1.00" shape="654.88,663.04 671.33,652.21 655.12,627.73 638.68,638.56 654.88,663.04" type="building"/>
   <poly color="red" fill="1" id="115994704" layer="-1.00" shape="657.86,672.75 675.69,699.46 692.39,688.37 674.56,661.66 657.86,672.75" type="building"/>
   <poly color="red" fill="1" id="115994708" layer="-1.00" shape="724.13,587.12 779.02,649.57 779.90,589.92 777.52,591.99 773.65,595.38 748.14,566.35 738.67,574.63 736.99,572.71 732.51,576.63 734.08,578.42 724.13,587.12" type="building"/>
   <poly color="red" fill="1" id="115995972" layer="-1.00" shape="359.43,407.52 376.94,427.35 386.52,418.94 369.01,399.10 359.43,407.52" type="building"/>
   <poly color="red" fill="1" id="115995974" layer="-1.00" shape="386.79,375.62 474.18,301.07 497.72,328.53 400.59,411.39 394.56,404.34 390.61,399.75 388.25,396.99 377.78,384.78 377.05,383.93 386.79,375.62" type="building"/>
   <poly color="red" fill="1" id="115995977" layer="-1.00" shape="391.86,549.33 456.66,652.05 462.93,648.11 499.87,706.66 513.51,698.10 505.32,685.12 498.44,689.44 478.91,658.49 476.52,654.71 433.29,586.17 439.60,582.20 423.75,557.07 417.65,560.91 405.11,541.01 391.86,549.33" type="building"/>
   <poly color="red" fill="1" id="115995981" layer="-1.00" shape="431.36,437.52 438.52,445.92 446.53,455.33 488.36,419.86 479.48,409.44 473.18,402.05 431.36,437.52" type="building"/>
   <poly color="red" fill="1" id="115995983" layer="-1.00" shape="514.87,637.08 529.17,657.99 562.68,635.19 548.38,614.28 514.87,637.08" type="building"/>
   <poly color="red" fill="1" id="115995986" layer="-1.00" shape="503.53,588.79 517.61,604.53 535.24,588.85 528.56,581.38 521.16,573.11 503.53,588.79" type="building"/>
   <poly color="red" fill="1" id="115995988" layer="-1.00" shape="481.55,652.62 483.46,655.63 498.18,678.92 508.26,672.59 491.67,646.28 481.55,652.62" type="building"/>
   <poly color="red" fill="1" id="115995989" layer="-1.00" shape="500.13,397.27 523.60,377.37 514.66,366.88 491.19,386.77 500.13,397.27" type="building"/>
   <poly color="237,199,199" fill="1" id="115995991" layer="-1.00" shape="520.53,500.72 542.25,481.12 551.15,473.07 534.44,454.69 481.27,502.78 483.21,504.92 479.73,508.19 494.20,537.68 500.07,534.81 502.41,539.58 510.85,535.46 522.92,529.56 520.35,524.33 533.25,518.04 526.69,504.66 523.28,506.32 520.53,500.72" type="amenity"/>
   <poly color="red" fill="1" id="115995991#1" layer="-1.00" shape="520.53,500.72 542.25,481.12 551.15,473.07 534.44,454.69 481.27,502.78 483.21,504.92 479.73,508.19 494.20,537.68 500.07,534.81 502.41,539.58 510.85,535.46 522.92,529.56 520.35,524.33 533.25,518.04 526.69,504.66 523.28,506.32 520.53,500.72" type="building"/>
   <poly color="red" fill="1" id="115995994" layer="-1.00" shape="424.25,536.07 426.93,539.15 442.51,525.63 439.83,522.55 424.25,536.07" type="building"/>
   <poly color="red" fill="1" id="115995995" layer="-1.00" shape="613.38,553.93 603.87,560.26 624.47,591.07 633.97,584.75 613.38,553.93" type="building"/>
   <poly color="red" fill="1" id="115995999" layer="-1.00" shape="353.98,338.58 386.79,375.62 474.18,301.07 441.05,263.14 353.98,338.58" type="building"/>
   <poly color="red" fill="1" id="115996000" layer="-1.00" shape="503.28,754.31" type="building"/>
   <poly color="237,199,255" fill="1" id="115996000#1" layer="-1.00" shape="503.28,754.31" type="shop"/>
   <poly color="red" fill="1" id="115996003" layer="-1.00" shape="479.48,409.44 493.43,397.62 496.07,400.71 500.13,397.27 491.19,386.77 473.18,402.05 479.48,409.44" type="building"/>
   <poly color="red" fill="1" id="115996004" layer="-1.00" shape="342.35,423.17 359.49,442.98 369.74,434.15 352.60,414.34 342.35,423.17" type="building"/>
   <poly color="red" fill="1" id="115996005" layer="-1.00" shape="450.41,480.45 468.29,501.18 546.61,434.04 528.74,413.30 450.41,480.45" type="building"/>
   <poly color="red" fill="1" id="115996010" layer="-1.00" shape="561.96,606.06 575.96,626.85 610.27,603.85 596.26,583.07 582.43,592.34 561.96,606.06" type="building"/>
   <poly color="red" fill="1" id="115996011" layer="-1.00" shape="420.92,520.96 452.53,493.57 391.50,423.50 359.88,450.89 420.92,520.96" type="building"/>
   <poly color="red" fill="1" id="115998349" layer="-1.00" shape="707.66,275.43 715.07,284.02 744.83,258.50 737.41,249.90 707.66,275.43" type="building"/>
   <poly color="red" fill="1" id="115998350" layer="-1.00" shape="462.59,246.15 519.91,313.14 574.06,267.06 572.30,265.01 524.89,209.58 516.75,200.08 462.59,246.15" type="building"/>
   <poly color="red" fill="1" id="115998351" layer="-1.00" shape="448.50,129.11 477.02,162.38 532.33,115.24 503.82,81.96 448.50,129.11" type="building"/>
   <poly color="red" fill="1" id="115998352" layer="-1.00" shape="477.02,162.38 428.38,203.83 440.11,217.52 436.79,220.35 456.67,243.56 563.94,152.14 532.33,115.24 477.02,162.38" type="building"/>
   <poly color="red" fill="1" id="115998355" layer="-1.00" shape="619.37,171.85 660.40,219.23 706.02,179.95 665.00,132.56 619.37,171.85" type="building"/>
   <poly color="red" fill="1" id="115998356" layer="-1.00" shape="593.18,132.91 601.32,139.63 622.60,114.00 614.46,107.28 593.18,132.91" type="building"/>
   <poly color="red" fill="1" id="115998357" layer="-1.00" shape="526.67,319.14 535.67,329.57 554.90,313.07 545.90,302.64 526.67,319.14" type="building"/>
   <poly color="red" fill="1" id="115998358" layer="-1.00" shape="648.33,252.29 628.79,229.53 572.18,277.83 587.76,295.98 591.72,300.60 648.33,252.29" type="building"/>
   <poly color="red" fill="1" id="115998359" layer="-1.00" shape="516.75,200.08 524.89,209.58 573.24,168.43 565.11,158.92 516.75,200.08" type="building"/>
   <poly color="red" fill="1" id="115998360" layer="-1.00" shape="672.97,233.66 689.98,253.59 728.65,220.76 735.12,228.35 742.87,221.76 719.39,194.25 672.97,233.66" type="building"/>
   <poly color="red" fill="1" id="115998361" layer="-1.00" shape="573.24,168.43 524.89,209.58 572.30,265.01 620.67,223.86 573.24,168.43" type="building"/>
   <poly color="red" fill="1" id="115998362" layer="-1.00" shape="544.09,341.25 545.50,342.87 569.92,371.36 625.56,323.88 652.77,300.63 662.59,312.08 683.99,293.82 648.33,252.29 591.72,300.60 585.23,306.14 544.09,341.25" type="building"/>
   <poly color="red" fill="1" id="115998363" layer="-1.00" shape="345.17,242.98 326.11,259.10 329.85,263.51 341.37,277.04 369.78,310.45 432.62,257.28 388.95,205.94 345.17,242.98" type="building"/>
   <poly color="red" fill="1" id="115998365" layer="-1.00" shape="692.51,257.86 707.66,275.43 737.41,249.90 741.58,246.32 726.42,228.76 692.51,257.86" type="building"/>
   <poly color="red" fill="1" id="115998366" layer="-1.00" shape="568.90,48.27 593.03,67.55 581.21,82.25 587.94,87.64 599.56,73.17 624.59,93.18 634.49,80.86 611.95,62.83 612.46,62.19 601.71,53.59 601.21,54.22 578.63,36.17 568.90,48.27" type="building"/>
   <poly color="red" fill="1" id="115998785" layer="-1.00" shape="749.95,40.39 751.87,43.50 755.86,41.06 755.64,40.72 765.86,34.46 766.08,34.81 769.71,32.58 763.23,22.05 749.21,30.62 747.46,27.78 722.68,42.95 728.30,52.09 731.88,49.92 732.56,51.04 749.95,40.39" type="building"/>
   <poly color="red" fill="1" id="115998787" layer="-1.00" shape="754.32,69.62 741.45,77.30 743.44,80.61 723.86,92.30 729.30,101.35 747.90,90.23 746.54,87.98 760.33,79.81 754.32,69.62" type="building"/>
   <poly color="red" fill="1" id="116635082" layer="-1.00" shape="5.16,323.73 12.98,333.44 17.42,329.69 36.09,313.69 27.85,304.53 5.16,323.73" type="building"/>
   <poly color="red" fill="1" id="116635083" layer="-1.00" shape="12.10,256.81 26.02,273.20 12.10,256.81" type="building"/>
   <poly color="red" fill="1" id="116635085" layer="-1.00" shape="10.97,313.02" type="building"/>
   <poly color="red" fill="1" id="116635086" layer="-1.00" shape="6.88,232.62 4.36,245.67 2.95,253.45 15.55,242.74 6.88,232.62" type="building"/>
   <poly color="red" fill="1" id="117859862" layer="-1.00" shape="93.84,32.84 89.28,35.64 81.40,40.53 109.33,85.50 121.48,78.28 106.93,54.85 93.84,32.84" type="building"/>
   <poly color="red" fill="1" id="117859863" layer="-1.00" shape="753.11,1.06 757.80,4.82 759.57,2.63 760.74,3.57 762.28,2.38 765.00,6.76 759.87,-6.94 757.83,-8.49 752.29,-5.10 755.80,-2.28 753.11,1.06" type="building"/>
   <poly color="red" fill="1" id="117859865" layer="-1.00" shape="251.05,210.57 234.15,222.64 236.68,226.16 238.73,229.02 245.73,238.55 253.26,248.78 260.91,259.17 277.59,247.26 275.26,244.02 251.05,210.57" type="building"/>
   <poly color="red" fill="0" id="117859866" layer="-1.00" shape="255.02,13.37 270.22,31.25 278.02,40.93 279.21,39.96 300.13,22.84" type="building"/>
   <poly color="red" fill="1" id="117859867" layer="-1.00" shape="647.37,-1.13 621.17,3.87 629.30,10.36 633.47,5.16 638.94,9.51 647.37,-1.13" type="building"/>
   <poly color="red" fill="1" id="117859869" layer="-1.00" shape="22.98,336.23 17.42,329.69 12.98,333.44 9.14,336.68 17.72,346.80 32.06,363.68 49.44,384.16 57.73,377.16 22.98,336.23" type="building"/>
   <poly color="red" fill="1" id="117859873" layer="-1.00" shape="663.81,3.28 667.37,6.09 664.68,9.49 663.10,23.20 664.37,24.21 663.81,3.28" type="building"/>
   <poly color="194,194,130" fill="1" id="123264795" layer="-3.00" shape="450.78,746.72" type="landuse"/>
   <poly color="237,199,255" fill="1" id="129015772" layer="-1.00" shape="360.38,620.69 390.11,597.56 357.49,533.19 321.64,482.07 289.63,438.78 277.13,448.91 279.57,457.20 280.56,482.61 276.43,500.72 270.74,513.00 360.38,620.69" type="shop"/>
   <poly color="red" fill="1" id="129015775" layer="-1.00" shape="36.29,288.00 44.89,298.00 54.58,289.72 45.98,279.71 36.29,288.00" type="building"/>
   <poly color="184,184,179" fill="1" id="141108861" layer="-1.00" shape="544.92,589.29 605.48,539.22 569.36,494.42 563.57,499.18 517.66,541.50 525.70,555.27 533.80,569.61 541.76,583.71 544.92,589.29" type="parking"/>
   <poly color="red" fill="1" id="141108969" layer="-1.00" shape="630.84,605.80 637.38,615.45 641.97,612.37 641.26,611.31 652.52,603.74 653.28,604.85 657.67,601.90 651.08,592.16 630.84,605.80" type="building"/>
   <poly color="red" fill="1" id="141108970" layer="-1.00" shape="561.80,666.25 570.73,660.41 565.59,652.61 556.67,658.46 561.80,666.25" type="building"/>
   <poly color="red" fill="1" id="141112100" layer="-1.00" shape="108.16,247.51 71.91,277.56 79.11,286.18 98.72,269.93 97.20,268.09 113.82,254.31 108.16,247.51" type="building"/>
   <poly color="237,199,255" fill="1" id="141112100#1" layer="-1.00" shape="108.16,247.51 71.91,277.56 79.11,286.18 98.72,269.93 97.20,268.09 113.82,254.31 108.16,247.51" type="shop"/>
   <poly color="red" fill="1" id="141112103" layer="-1.00" shape="100.93,304.37 96.94,307.74 102.26,314.00 113.55,304.46 120.59,298.52 115.46,292.48 109.51,297.52 108.53,296.38 100.15,303.45 100.93,304.37" type="building"/>
   <poly color="237,199,255" fill="1" id="141112103#1" layer="-1.00" shape="100.93,304.37 96.94,307.74 102.26,314.00 113.55,304.46 120.59,298.52 115.46,292.48 109.51,297.52 108.53,296.38 100.15,303.45 100.93,304.37" type="shop"/>
   <poly color="red" fill="1" id="159401817" layer="-1.00" shape="543.06,28.25 548.78,23.36 539.90,13.01 535.17,17.04 534.17,17.89 536.04,20.07 543.06,28.25" type="building"/>
   <poly color="red" fill="1" id="159401830" layer="-1.00" shape="563.22,7.05 568.76,-0.20 550.41,1.66 555.65,5.67 557.76,2.86 563.22,7.05" type="building"/>
   <poly color="red" fill="1" id="160045387" layer="-1.00" shape="722.95,73.47 704.03,55.67 692.82,67.52 718.00,91.20 722.02,86.96 715.94,81.01 722.95,73.47" type="building"/>
   <poly color="red" fill="1" id="161374515" layer="-1.00" shape="707.14,28.17 707.63,27.64 719.18,15.20 711.91,8.48 713.82,6.42 710.00,2.91 708.08,4.98 700.45,-2.08 688.42,10.89 703.12,24.45 707.14,28.17" type="building"/>
   <poly color="237,199,255" fill="1" id="161374515#1" layer="-1.00" shape="707.14,28.17 707.63,27.64 719.18,15.20 711.91,8.48 713.82,6.42 710.00,2.91 708.08,4.98 700.45,-2.08 688.42,10.89 703.12,24.45 707.14,28.17" type="shop"/>
   <poly color="red" fill="1" id="161374517" layer="-1.00" shape="701.72,36.01 708.16,28.14 707.63,27.64 707.14,28.17 703.12,24.45 699.65,28.10 700.25,28.67 693.31,35.95 693.73,36.35 698.08,40.47 701.72,36.01" type="building"/>
   <poly color="red" fill="0" id="161374548" layer="-1.00" shape="704.77,0.52 709.28,-4.38" type="building"/>
   <poly color="red" fill="1" id="161374549" layer="-1.00" shape="774.99,149.51 776.08,148.61 752.72,122.22 751.72,123.04 750.14,121.12 751.06,117.56 752.78,116.52 753.51,117.71 775.40,91.24 763.53,98.68 751.65,106.12 739.76,113.55 740.72,115.13 738.77,116.30 735.11,118.48 758.35,146.75 766.43,156.57 774.99,149.51" type="building"/>
   <poly color="red" fill="1" id="161374555" layer="-1.00" shape="698.08,40.47 732.24,72.91 736.16,68.81 701.72,36.01 698.08,40.47" type="building"/>
   <poly color="red" fill="1" id="161374563" layer="-1.00" shape="710.12,145.30 716.66,153.10 723.09,147.75 716.54,139.93 710.12,145.30" type="building"/>
   <poly color="red" fill="1" id="161374568" layer="-1.00" shape="692.49,123.57 698.13,130.30 704.22,125.23 698.59,118.50 692.49,123.57" type="building"/>
   <poly color="red" fill="1" id="161374574" layer="-1.00" shape="686.78,29.47 694.75,21.15 686.87,13.64 678.91,21.96 686.78,29.47" type="building"/>
   <poly color="red" fill="1" id="161374592" layer="-1.00" shape="693.73,36.35 693.31,35.95 687.73,30.64 685.64,32.83 691.65,38.54 693.73,36.35" type="building"/>
   <poly color="red" fill="0" id="161374593" layer="-1.00" shape="765.17,126.49 779.77,144.20" type="building"/>
   <poly color="red" fill="1" id="161374596" layer="-1.00" shape="762.70,210.07 772.10,221.29 779.52,215.12 770.11,203.90 762.70,210.07" type="building"/>
   <poly color="red" fill="1" id="161374607" layer="-1.00" shape="696.90,131.34 709.22,146.04 710.12,145.30 716.54,139.93 704.22,125.23 698.13,130.30 696.90,131.34" type="building"/>
   <poly color="red" fill="1" id="161374615" layer="-1.00" shape="691.32,124.55 692.49,123.57 698.59,118.50 699.20,117.99 686.81,103.20 678.92,109.77 691.32,124.55" type="building"/>
   <poly color="red" fill="1" id="161374620" layer="-1.00" shape="722.02,86.96 722.75,87.64 732.52,77.32 725.53,70.74 722.95,73.47 715.94,81.01 722.02,86.96" type="building"/>
   <poly color="red" fill="1" id="161374622" layer="-1.00" shape="762.99,233.91 756.78,239.08 763.42,247.01 773.30,238.77 767.59,231.96 766.66,230.85 762.99,233.91" type="building"/>
   <poly color="red" fill="1" id="161374624" layer="-1.00" shape="745.92,247.34 752.95,255.72 763.42,247.01 756.78,239.08 756.39,238.62 751.87,242.39 745.92,247.34" type="building"/>
   <poly color="red" fill="1" id="161374681" layer="-1.00" shape="685.64,32.83 679.18,39.60 690.07,49.95 696.53,43.18 695.99,42.67 698.08,40.47 693.73,36.35 691.65,38.54 685.64,32.83" type="building"/>
   <poly color="red" fill="0" id="161374686" layer="-1.00" shape="780.91,156.37 774.99,149.51 766.43,156.57" type="building"/>
   <poly color="red" fill="1" id="161374687" layer="-1.00" shape="766.66,230.85 763.28,226.81 742.93,243.78 745.92,247.34 751.87,242.39 750.44,240.69 761.17,231.75 762.99,233.91 766.66,230.85" type="building"/>
   <poly color="red" fill="1" id="161374688" layer="-1.00" shape="556.20,48.13 547.99,38.95 531.45,53.65 533.49,55.94 529.03,59.91 534.78,66.33 539.24,62.37 539.65,62.83 556.20,48.13" type="building"/>
   <poly color="red" fill="1" id="161374701" layer="-1.00" shape="773.30,238.77 779.52,215.12 772.10,221.29 771.17,222.07 775.48,227.22 771.85,230.24 770.95,229.16 767.59,231.96 773.30,238.77" type="building"/>
   <poly color="red" fill="1" id="162610956" layer="-1.00" shape="772.39,373.76 787.07,360.71 780.65,353.53 765.97,366.59 772.39,373.76" type="building"/>
   <poly color="red" fill="1" id="162610957" layer="-1.00" shape="746.58,297.47 756.66,308.32 763.60,301.90 753.53,291.04 746.58,297.47" type="building"/>
   <poly color="red" fill="1" id="162610976" layer="-1.00" shape="507.27,23.63 497.28,32.20 514.47,52.12 524.46,43.53 522.47,41.23 507.27,23.63" type="building"/>
   <poly color="red" fill="1" id="162610979" layer="-1.00" shape="780.81,334.38 787.89,327.84 780.81,334.38" type="building"/>
   <poly color="red" fill="1" id="162611022" layer="-1.00" shape="777.73,316.88 778.74,315.96 764.74,300.85 763.60,301.90 756.66,308.32 770.66,323.41 777.73,316.88" type="building"/>
   <poly color="237,199,199" fill="1" id="165544945" layer="-1.00" shape="638.94,9.51 635.89,13.31 643.19,19.14 649.32,11.50 656.29,17.06 661.70,10.33 658.71,7.95 663.27,2.27 647.37,-1.13 638.94,9.51" type="amenity"/>
   <poly color="red" fill="1" id="165544945#1" layer="-1.00" shape="638.94,9.51 635.89,13.31 643.19,19.14 649.32,11.50 656.29,17.06 661.70,10.33 658.71,7.95 663.27,2.27 647.37,-1.13 638.94,9.51" type="building"/>
   <poly color="red" fill="1" id="166095818" layer="-1.00" shape="771.01,270.46 785.12,258.18 782.92,255.65 778.84,250.98 764.72,263.26 771.01,270.46" type="building"/>
   <poly color="red" fill="1" id="166095828" layer="-1.00" shape="781.49,243.52" type="building"/>
   <poly color="red" fill="1" id="166149960" layer="-1.00" shape="524.46,43.53 534.55,34.80 534.66,32.87 533.63,31.94 532.76,29.99 532.38,27.05 532.75,24.27 533.86,21.75 536.04,20.07 534.17,17.89 535.17,17.04 533.25,15.27 527.47,32.85 524.15,38.88 522.47,41.23 524.46,43.53" type="building"/>
   <poly color="red" fill="1" id="167096509" layer="-1.00" shape="271.75,100.28 348.54,35.78 347.16,34.26 337.20,22.33 333.27,25.64 327.80,19.16 289.10,51.66 254.93,80.36 271.75,100.28" type="building"/>
   <poly color="red" fill="1" id="167097938" layer="-1.00" shape="369.10,139.02 388.14,161.18 493.11,71.48 474.07,49.31 375.75,133.32 369.10,139.02" type="building"/>
   <poly color="red" fill="1" id="167121408" layer="-1.00" shape="187.94,16.28" type="building"/>
   <poly color="red" fill="1" id="167121410" layer="-1.00" shape="137.85,53.16 132.80,57.23 129.49,53.37 127.18,55.42 130.16,59.26 125.38,62.99 137.75,78.31 150.48,68.25 137.85,53.16" type="building"/>