<?xml version="1.0" encoding="utf-8"?><!-- generated on 10/11/17 17:48:44 by SUMO netconvert Version 0.25.0
<?xml version="1.0" encoding="UTF-8"?>

<configuration xmlns:xsi="http://www.w3.org/2001/XMLSchema-instance" xsi:noNamespaceSchemaLocation="http://sumo.dlr.de/xsd/netconvertConfiguration.xsd">

    <input>
        <type-files value="osmNetconvert.typ.xml"/>
        <osm-files value="AC_GruenWeg_industrial_800.osm"/>
    </input>

    <output>
        <output-file value="AC_GruenWeg_industrial_800.net.xml"/>
    </output>

    <projection>
        <proj.utm value="true"/>
    </projection>

    <edge_removal>
        <remove-edges.by-type value="highway.track,highway.unsurfaced,highway.raceway,highway.bridleway,highway.path,highway.footway,highway.pedestrian,highway.cycleway,highway.step,highway.steps,highway.stairs,highway.bus_guideway,highway.ford,railway.rail,railway.tram,railway.light_rail,railway.subway,railway.preserved,railway.narrow_gauge,railway.monorail,railway.funicular"/>
    </edge_removal>

</configuration>
-->
<net version="0.25">
   <location convBoundary="0.00,0.00,797.44,747.57" netOffset="-295743.31,-5629932.47" origBoundary="6.102116,50.785322,6.113183,50.792032" projParameter="+proj=utm +zone=32 +ellps=WGS84 +datum=WGS84 +units=m +no_defs"/>
   <type allow="pedestrian" id="highway.bridleway" numLanes="1" oneway="1" priority="1" speed="2.78" width="2.00"/>
   <type allow="bus" id="highway.bus_guideway" numLanes="1" oneway="1" priority="1" speed="8.33"/>
   <type allow="bicycle" id="highway.cycleway" numLanes="1" oneway="0" priority="1" speed="5.56" width="1.00"/>
   <type allow="pedestrian" id="highway.footway" numLanes="1" oneway="1" priority="1" speed="8.33" width="2.00"/>
   <type allow="army" id="highway.ford" numLanes="1" oneway="0" priority="1" speed="2.78"/>
   <type disallow="tram rail_urban rail rail_electric ship" id="highway.living_street" numLanes="1" oneway="0" priority="3" speed="2.78"/>
   <type allow="private emergency authority army vip passenger hov taxi bus coach delivery truck trailer motorcycle evehicle custom1 custom2" id="highway.motorway" numLanes="2" oneway="1" priority="13" speed="44.44"/>
   <type allow="private emergency authority army vip passenger hov taxi bus coach delivery truck trailer motorcycle evehicle custom1 custom2" id="highway.motorway_link" numLanes="1" oneway="1" priority="12" speed="22.22"/>
   <type allow="bicycle pedestrian" id="highway.path" numLanes="1" oneway="1" priority="1" speed="2.78" width="2.00"/>
   <type allow="pedestrian" id="highway.pedestrian" numLanes="1" oneway="1" priority="1" speed="8.33" width="2.00"/>
   <type disallow="tram rail_urban rail rail_electric ship" id="highway.primary" numLanes="2" oneway="0" priority="9" speed="27.78"/>
   <type disallow="tram rail_urban rail rail_electric ship" id="highway.primary_link" numLanes="1" oneway="0" priority="8" speed="22.22"/>
   <type allow="vip" id="highway.raceway" numLanes="2" oneway="0" priority="14" speed="83.33"/>
   <type disallow="tram rail_urban rail rail_electric ship" id="highway.residential" numLanes="1" oneway="0" priority="4" speed="13.89"/>
   <type disallow="tram rail_urban rail rail_electric ship" id="highway.secondary" numLanes="2" oneway="0" priority="7" speed="27.78"/>
   <type disallow="tram rail_urban rail rail_electric ship" id="highway.secondary_link" numLanes="1" oneway="0" priority="6" speed="22.22"/>
   <type allow="delivery bicycle pedestrian" id="highway.service" numLanes="1" oneway="0" priority="2" speed="5.56"/>
   <type disallow="tram rail_urban rail rail_electric ship" id="highway.services" numLanes="1" oneway="0" priority="1" speed="8.33"/>
   <type allow="pedestrian" id="highway.stairs" numLanes="1" oneway="1" priority="1" speed="1.39" width="2.00"/>
   <type allow="pedestrian" id="highway.step" numLanes="1" oneway="1" priority="1" speed="1.39" width="2.00"/>
   <type allow="pedestrian" id="highway.steps" numLanes="1" oneway="1" priority="1" speed="1.39" width="2.00"/>
   <type disallow="tram rail_urban rail rail_electric ship" id="highway.tertiary" numLanes="1" oneway="0" priority="6" speed="22.22"/>
   <type disallow="tram rail_urban rail rail_electric ship" id="highway.tertiary_link" numLanes="1" oneway="0" priority="5" speed="22.22"/>
   <type disallow="tram rail_urban rail rail_electric ship" id="highway.track" numLanes="1" oneway="0" priority="1" speed="5.56"/>
   <type disallow="tram rail_urban rail rail_electric bicycle pedestrian ship" id="highway.trunk" numLanes="2" oneway="0" priority="11" speed="27.78"/>
   <type disallow="tram rail_urban rail rail_electric bicycle pedestrian ship" id="highway.trunk_link" numLanes="1" oneway="0" priority="10" speed="22.22"/>
   <type disallow="tram rail_urban rail rail_electric ship" id="highway.unclassified" numLanes="1" oneway="0" priority="5" speed="13.89"/>
   <type disallow="tram rail_urban rail rail_electric ship" id="highway.unsurfaced" numLanes="1" oneway="0" priority="1" speed="8.33"/>
   <type allow="rail_urban" id="railway.light_rail" numLanes="1" oneway="1" priority="15" speed="27.78"/>
   <type allow="rail" id="railway.preserved" numLanes="1" oneway="1" priority="15" speed="27.78"/>
   <type allow="rail rail_electric" id="railway.rail" numLanes="1" oneway="1" priority="15" speed="83.33"/>
   <type allow="rail_urban" id="railway.subway" numLanes="1" oneway="1" priority="15" speed="27.78"/>
   <type allow="tram" id="railway.tram" numLanes="1" oneway="1" priority="15" speed="13.89"/>
   <edge function="internal" id=":1222819685_0">
      <lane allow="delivery bicycle pedestrian" id=":1222819685_0_0" index="0" length="4.82" shape="52.79,247.99 51.31,248.14 50.47,247.77 50.26,246.87 50.69,245.44" speed="5.56"/>
   </edge>
   <edge function="internal" id=":1222819702_0">
      <lane allow="delivery bicycle pedestrian" id=":1222819702_0_0" index="0" length="7.96" shape="32.68,247.96 31.50,246.12 31.21,244.35 31.79,242.65 33.25,241.02" speed="9.72"/>
   </edge>
   <edge function="internal" id=":1222819702_1">
      <lane disallow="tram rail_urban rail rail_electric ship" id=":1222819702_1_0" index="0" length="4.82" shape="32.68,247.96 32.50,246.48 32.85,245.63 33.75,245.41 35.18,245.81" speed="13.89"/>
   </edge>
   <edge function="internal" id=":1222819702_2">
      <lane disallow="tram rail_urban rail rail_electric ship" id=":1222819702_2_0" index="0" length="2.60" shape="35.37,243.55 34.89,244.08 34.70,244.63 34.80,245.21 35.18,245.81" speed="9.72"/>
   </edge>
   <edge function="internal" id=":1222819702_3">
      <lane allow="delivery bicycle pedestrian" id=":1222819702_3_0" index="0" length="4.82" shape="35.37,243.55 33.89,243.71 33.04,243.34 32.83,242.45 33.25,241.02" speed="5.56"/>
   </edge>
   <edge function="internal" id=":1222819707_0">
      <lane allow="delivery bicycle pedestrian" id=":1222819707_0_0" index="0" length="4.82" shape="77.73,231.07 76.25,231.22 75.40,230.84 75.20,229.94 75.63,228.52" speed="5.56"/>
   </edge>
   <edge function="internal" id=":1222819709_0">
      <lane allow="delivery bicycle pedestrian" id=":1222819709_0_0" index="0" length="5.02" shape="49.18,217.08 48.16,216.15 47.09,215.77 45.97,215.94 44.79,216.66" speed="5.56"/>
   </edge>
   <edge function="internal" id=":1222819709_1">
      <lane allow="delivery bicycle pedestrian" id=":1222819709_1_0" index="0" length="9.52" shape="49.18,217.08 43.11,209.74" speed="5.56"/>
   </edge>
   <edge function="internal" id=":1222819709_2">
      <lane allow="delivery bicycle pedestrian" id=":1222819709_2_0" index="0" length="10.33" shape="49.18,217.08 47.70,214.66 47.35,212.35 48.13,210.15 50.04,208.06" speed="5.56"/>
   </edge>
   <edge function="internal" id=":1222819709_3">
      <lane allow="delivery bicycle pedestrian" id=":1222819709_3_0" index="0" length="4.82" shape="49.18,217.08 49.02,215.60 49.40,214.76 50.30,214.55 51.72,214.98" speed="5.56"/>
   </edge>
   <edge function="internal" id=":1222819709_4">
      <lane allow="delivery bicycle pedestrian" id=":1222819709_4_0" index="0" length="5.00" shape="52.14,210.61 51.22,211.62 50.84,212.69 51.01,213.81 51.72,214.98" speed="5.56"/>
   </edge>
   <edge function="internal" id=":1222819709_5">
      <lane allow="delivery bicycle pedestrian" id=":1222819709_5_0" index="0" length="9.52" shape="52.14,210.61 44.79,216.66" speed="5.56"/>
   </edge>
   <edge function="internal" id=":1222819709_6">
      <lane allow="delivery bicycle pedestrian" id=":1222819709_6_0" index="0" length="10.34" shape="52.14,210.61 49.72,212.08 47.41,212.43 45.21,211.65 43.11,209.74" speed="5.56"/>
   </edge>
   <edge function="internal" id=":1222819709_7">
      <lane allow="delivery bicycle pedestrian" id=":1222819709_7_0" index="0" length="4.82" shape="52.14,210.61 50.66,210.76 49.82,210.39 49.61,209.49 50.04,208.06" speed="5.56"/>
   </edge>
   <edge function="internal" id=":1222819709_8">
      <lane allow="delivery bicycle pedestrian" id=":1222819709_8_0" index="0" length="5.02" shape="45.66,207.64 46.67,208.57 47.75,208.95 48.87,208.78 50.04,208.06" speed="5.56"/>
   </edge>
   <edge function="internal" id=":1222819709_9">
      <lane allow="delivery bicycle pedestrian" id=":1222819709_9_0" index="0" length="9.52" shape="45.66,207.64 51.72,214.98" speed="5.56"/>
   </edge>
   <edge function="internal" id=":1222819709_10">
      <lane allow="delivery bicycle pedestrian" id=":1222819709_10_0" index="0" length="10.33" shape="45.66,207.64 47.14,210.06 47.48,212.37 46.70,214.57 44.79,216.66" speed="5.56"/>
   </edge>
   <edge function="internal" id=":1222819709_11">
      <lane allow="delivery bicycle pedestrian" id=":1222819709_11_0" index="0" length="4.82" shape="45.66,207.64 45.81,209.12 45.44,209.96 44.54,210.17 43.11,209.74" speed="5.56"/>
   </edge>
   <edge function="internal" id=":1222819709_12">
      <lane allow="delivery bicycle pedestrian" id=":1222819709_12_0" index="0" length="5.00" shape="42.69,214.11 43.62,213.10 44.00,212.03 43.83,210.91 43.11,209.74" speed="5.56"/>
   </edge>
   <edge function="internal" id=":1222819709_13">
      <lane allow="delivery bicycle pedestrian" id=":1222819709_13_0" index="0" length="9.52" shape="42.69,214.11 50.04,208.06" speed="5.56"/>
   </edge>
   <edge function="internal" id=":1222819709_14">
      <lane allow="delivery bicycle pedestrian" id=":1222819709_14_0" index="0" length="10.34" shape="42.69,214.11 45.11,212.64 47.42,212.29 49.63,213.07 51.72,214.98" speed="5.56"/>
   </edge>
   <edge function="internal" id=":1222819709_15">
      <lane allow="delivery bicycle pedestrian" id=":1222819709_15_0" index="0" length="4.82" shape="42.69,214.11 44.17,213.96 45.02,214.33 45.22,215.23 44.79,216.66" speed="5.56"/>
   </edge>
   <edge function="internal" id=":1222819719_0">
      <lane allow="delivery bicycle pedestrian" id=":1222819719_0_0" index="0" length="5.01" shape="79.08,212.61 78.07,211.69 77.00,211.31 75.88,211.48 74.71,212.20" speed="5.56"/>
   </edge>
   <edge function="internal" id=":1222819719_1">
      <lane allow="delivery bicycle pedestrian" id=":1222819719_1_0" index="0" length="9.50" shape="79.08,212.61 73.03,205.29" speed="5.56"/>
   </edge>
   <edge function="internal" id=":1222819719_2">
      <lane allow="delivery bicycle pedestrian" id=":1222819719_2_0" index="0" length="4.82" shape="79.08,212.61 78.93,211.13 79.30,210.29 80.20,210.08 81.62,210.51" speed="5.56"/>
   </edge>
   <edge function="internal" id=":1222819719_3">
      <lane allow="delivery bicycle pedestrian" id=":1222819719_3_0" index="0" length="9.50" shape="75.57,203.18 81.62,210.51" speed="5.56"/>
   </edge>
   <edge function="internal" id=":1222819719_4">
      <lane allow="delivery bicycle pedestrian" id=":1222819719_4_0" index="0" length="10.33" shape="75.57,203.18 77.05,205.60 77.40,207.91 76.62,210.11 74.71,212.20" speed="5.56"/>
   </edge>
   <edge function="internal" id=":1222819719_5">
      <lane allow="delivery bicycle pedestrian" id=":1222819719_5_0" index="0" length="4.82" shape="75.57,203.18 75.72,204.66 75.35,205.51 74.45,205.72 73.03,205.29" speed="5.56"/>
   </edge>
   <edge function="internal" id=":1222819719_6">
      <lane allow="delivery bicycle pedestrian" id=":1222819719_6_0" index="0" length="5.00" shape="72.61,209.65 73.53,208.64 73.91,207.57 73.74,206.46 73.03,205.29" speed="5.56"/>
   </edge>
   <edge function="internal" id=":1222819719_7">
      <lane allow="delivery bicycle pedestrian" id=":1222819719_7_0" index="0" length="10.32" shape="72.61,209.65 75.03,208.18 77.34,207.83 79.53,208.61 81.62,210.51" speed="5.56"/>
   </edge>
   <edge function="internal" id=":1222819719_8">
      <lane allow="delivery bicycle pedestrian" id=":1222819719_8_0" index="0" length="4.82" shape="72.61,209.65 74.09,209.50 74.93,209.88 75.14,210.78 74.71,212.20" speed="5.56"/>
   </edge>
   <edge function="internal" id=":1222819723_0">
      <lane allow="delivery bicycle pedestrian" id=":1222819723_0_0" index="0" length="3.18" shape="62.31,226.43 61.43,225.39 60.76,224.68 60.30,224.30 60.07,224.24" speed="5.56"/>
   </edge>
   <edge function="internal" id=":1222819723_1">
      <lane allow="delivery bicycle pedestrian" id=":1222819723_1_0" index="0" length="10.33" shape="62.31,226.43 60.83,224.01 60.49,221.70 61.27,219.50 63.18,217.41" speed="5.56"/>
   </edge>
   <edge function="internal" id=":1222819723_2">
      <lane allow="delivery bicycle pedestrian" id=":1222819723_2_0" index="0" length="4.82" shape="62.31,226.43 62.16,224.95 62.53,224.11 63.43,223.90 64.86,224.32" speed="5.56"/>
   </edge>
   <edge function="internal" id=":1222819723_3">
      <lane allow="delivery bicycle pedestrian" id=":1222819723_3_0" index="0" length="5.00" shape="65.27,219.96 64.35,220.97 63.97,222.04 64.14,223.16 64.86,224.32" speed="5.56"/>
   </edge>
   <edge function="internal" id=":1222819723_4">
      <lane allow="delivery bicycle pedestrian" id=":1222819723_4_0" index="0" length="6.74" shape="65.27,219.96 60.07,224.24" speed="5.56"/>
   </edge>
   <edge function="internal" id=":1222819723_5">
      <lane allow="delivery bicycle pedestrian" id=":1222819723_5_0" index="0" length="4.82" shape="65.27,219.96 63.79,220.11 62.95,219.73 62.75,218.84 63.18,217.41" speed="5.56"/>
   </edge>
   <edge function="internal" id=":1222819723_6">
      <lane allow="delivery bicycle pedestrian" id=":1222819723_6_0" index="0" length="6.74" shape="57.97,221.69 63.18,217.41" speed="5.56"/>
   </edge>
   <edge function="internal" id=":1222819723_7">
      <lane allow="delivery bicycle pedestrian" id=":1222819723_7_0" index="0" length="8.22" shape="57.97,221.69 59.45,220.99 61.10,221.20 62.90,222.31 64.86,224.32" speed="5.56"/>
   </edge>
   <edge function="internal" id=":1222819723_8">
      <lane allow="delivery bicycle pedestrian" id=":1222819723_8_0" index="0" length="4.82" shape="57.97,221.69 59.45,221.55 60.29,221.92 60.50,222.82 60.07,224.24" speed="5.56"/>
   </edge>
   <edge function="internal" id=":1222819724_0">
      <lane allow="delivery bicycle pedestrian" id=":1222819724_0_0" index="0" length="7.89" shape="38.08,222.18 36.23,223.30 34.47,223.57 32.79,222.97 31.19,221.52" speed="5.56"/>
   </edge>
   <edge function="internal" id=":1222819724_1">
      <lane allow="delivery bicycle pedestrian" id=":1222819724_1_0" index="0" length="2.80" shape="38.08,222.18 36.60,222.33 35.76,221.95 35.67,221.57" speed="5.56"/>
   </edge>
   <edge function="internal" id=":1222819724_4">
      <lane id=":1222819724_4_0" index="0" length="2.02" shape="35.67,221.57 35.55,221.05 35.98,219.63" speed="5.56"/>
   </edge>
   <edge function="internal" id=":1222819724_2">
      <lane allow="delivery bicycle pedestrian" id=":1222819724_2_0" index="0" length="2.58" shape="33.73,219.41 34.26,219.89 34.81,220.08 35.38,220.00 35.98,219.63" speed="5.56"/>
   </edge>
   <edge function="internal" id=":1222819724_3">
      <lane allow="delivery bicycle pedestrian" id=":1222819724_3_0" index="0" length="2.20" shape="33.73,219.41 33.89,220.89 33.60,221.54" speed="5.56"/>
   </edge>
   <edge function="internal" id=":1222819724_5">
      <lane id=":1222819724_5_0" index="0" length="2.62" shape="33.60,221.54 33.51,221.74 32.62,221.94 31.19,221.52" speed="5.56"/>
   </edge>
   <edge function="internal" id=":1222819725_0">
      <lane allow="delivery bicycle pedestrian" id=":1222819725_0_0" index="0" length="6.92" shape="59.91,224.37 54.46,228.62" speed="5.56"/>
   </edge>
   <edge function="internal" id=":1222819725_1">
      <lane allow="delivery bicycle pedestrian" id=":1222819725_1_0" index="0" length="8.32" shape="59.91,224.37 58.42,225.06 56.77,224.84 54.95,223.70 52.95,221.64" speed="5.56"/>
   </edge>
   <edge function="internal" id=":1222819725_2">
      <lane allow="delivery bicycle pedestrian" id=":1222819725_2_0" index="0" length="4.82" shape="59.91,224.37 58.43,224.52 57.59,224.14 57.38,223.24 57.82,221.82" speed="5.56"/>
   </edge>
   <edge function="internal" id=":1222819725_3">
      <lane allow="delivery bicycle pedestrian" id=":1222819725_3_0" index="0" length="3.29" shape="55.50,219.54 56.41,220.62 57.11,221.36 57.57,221.76 57.82,221.82" speed="5.56"/>
   </edge>
   <edge function="internal" id=":1222819725_4">
      <lane allow="delivery bicycle pedestrian" id=":1222819725_4_0" index="0" length="10.52" shape="55.50,219.54 57.01,222.02 57.34,224.35 56.49,226.56 54.46,228.62" speed="5.56"/>
   </edge>
   <edge function="internal" id=":1222819725_5">
      <lane allow="delivery bicycle pedestrian" id=":1222819725_5_0" index="0" length="4.82" shape="55.50,219.54 55.65,221.02 55.28,221.87 54.38,222.07 52.95,221.64" speed="5.56"/>
   </edge>
   <edge function="internal" id=":1222819725_6">
      <lane allow="delivery bicycle pedestrian" id=":1222819725_6_0" index="0" length="5.05" shape="52.45,226.00 53.43,225.01 53.84,223.95 53.68,222.83 52.95,221.64" speed="5.56"/>
   </edge>
   <edge function="internal" id=":1222819725_7">
      <lane allow="delivery bicycle pedestrian" id=":1222819725_7_0" index="0" length="6.80" shape="52.45,226.00 57.82,221.82" speed="5.56"/>
   </edge>
   <edge function="internal" id=":1222819725_8">
      <lane allow="delivery bicycle pedestrian" id=":1222819725_8_0" index="0" length="4.82" shape="52.45,226.00 53.94,225.91 54.77,226.31 54.94,227.22 54.46,228.62" speed="5.56"/>
   </edge>
   <edge function="internal" id=":1544652444_0">
      <lane allow="delivery bicycle pedestrian" id=":1544652444_0_0" index="0" length="6.72" shape="517.56,544.59 516.87,542.94 516.79,541.38 517.32,539.90 518.47,538.52" speed="5.56"/>
   </edge>
   <edge function="internal" id=":1544652444_1">
      <lane allow="delivery bicycle pedestrian" id=":1544652444_1_0" index="0" length="2.84" shape="517.56,544.59 517.64,543.11 518.15,542.34 518.57,542.31" speed="5.56"/>
   </edge>
   <edge function="internal" id=":1544652444_4">
      <lane id=":1544652444_4_0" index="0" length="1.98" shape="518.57,542.31 519.07,542.28 520.41,542.93" speed="5.56"/>
   </edge>
   <edge function="internal" id=":1544652444_2">
      <lane allow="delivery bicycle pedestrian" id=":1544652444_2_0" index="0" length="2.19" shape="520.70,540.95 520.33,541.40 520.16,541.88 520.18,542.39 520.41,542.93" speed="5.56"/>
   </edge>
   <edge function="internal" id=":1544652444_3">
      <lane allow="delivery bicycle pedestrian" id=":1544652444_3_0" index="0" length="2.12" shape="520.70,540.95 519.23,541.18 518.64,540.96" speed="5.56"/>
   </edge>
   <edge function="internal" id=":1544652444_5">
      <lane id=":1544652444_5_0" index="0" length="2.70" shape="518.64,540.96 518.37,540.85 518.12,539.97 518.47,538.52" speed="5.56"/>
   </edge>
   <edge function="internal" id=":1544652455_0">
      <lane allow="delivery bicycle pedestrian" id=":1544652455_0_0" index="0" length="9.54" shape="526.32,559.72 521.56,551.45" speed="5.56"/>
   </edge>
   <edge function="internal" id=":1544652455_1">
      <lane allow="delivery bicycle pedestrian" id=":1544652455_1_0" index="0" length="10.43" shape="526.32,559.72 525.45,557.34 525.56,555.01 526.65,552.74 528.73,550.52" speed="5.56"/>
   </edge>
   <edge function="internal" id=":1544652455_2">
      <lane allow="delivery bicycle pedestrian" id=":1544652455_2_0" index="0" length="4.82" shape="526.32,559.72 526.43,558.24 526.95,557.47 527.87,557.43 529.19,558.10" speed="5.56"/>
   </edge>
   <edge function="internal" id=":1544652455_3">
      <lane allow="delivery bicycle pedestrian" id=":1544652455_3_0" index="0" length="5.84" shape="530.87,553.02 529.62,554.32 528.92,555.60 528.78,556.86 529.19,558.10" speed="5.56"/>
   </edge>
   <edge function="internal" id=":1544652455_4">
      <lane allow="delivery bicycle pedestrian" id=":1544652455_4_0" index="0" length="11.28" shape="530.87,553.02 528.19,554.72 525.75,555.03 523.54,553.94 521.56,551.45" speed="5.56"/>
   </edge>
   <edge function="internal" id=":1544652455_5">
      <lane allow="delivery bicycle pedestrian" id=":1544652455_5_0" index="0" length="4.82" shape="530.87,553.02 529.40,553.20 528.55,552.84 528.32,551.95 528.73,550.52" speed="5.56"/>
   </edge>
   <edge function="internal" id=":1544652455_6">
      <lane allow="delivery bicycle pedestrian" id=":1544652455_6_0" index="0" length="5.23" shape="524.41,549.79 525.33,550.94 526.35,551.44 527.48,551.30 528.73,550.52" speed="5.56"/>
   </edge>
   <edge function="internal" id=":1544652455_7">
      <lane allow="delivery bicycle pedestrian" id=":1544652455_7_0" index="0" length="9.59" shape="524.41,549.79 529.19,558.10" speed="5.56"/>
   </edge>
   <edge function="internal" id=":1544652455_8">
      <lane allow="delivery bicycle pedestrian" id=":1544652455_8_0" index="0" length="4.82" shape="524.41,549.79 524.32,551.27 523.82,552.04 522.90,552.10 521.56,551.45" speed="5.56"/>
   </edge>
   <edge function="internal" id=":1544652456_0">
      <lane allow="delivery bicycle pedestrian" id=":1544652456_0_0" index="0" length="9.59" shape="534.46,574.13 529.74,565.78" speed="5.56"/>
   </edge>
   <edge function="internal" id=":1544652456_1">
      <lane allow="delivery bicycle pedestrian" id=":1544652456_1_0" index="0" length="10.44" shape="534.46,574.13 533.57,571.71 533.68,569.38 534.80,567.14 536.92,564.98" speed="5.56"/>
   </edge>
   <edge function="internal" id=":1544652456_2">
      <lane allow="delivery bicycle pedestrian" id=":1544652456_2_0" index="0" length="4.82" shape="534.46,574.13 534.57,572.65 535.08,571.88 536.01,571.83 537.33,572.51" speed="5.56"/>
   </edge>
   <edge function="internal" id=":1544652456_3">
      <lane allow="delivery bicycle pedestrian" id=":1544652456_3_0" index="0" length="5.74" shape="538.99,567.55 537.74,568.79 537.04,570.02 536.91,571.26 537.33,572.51" speed="5.56"/>
   </edge>
   <edge function="internal" id=":1544652456_4">
      <lane allow="delivery bicycle pedestrian" id=":1544652456_4_0" index="0" length="11.19" shape="538.99,567.55 536.29,569.15 533.84,569.39 531.66,568.27 529.74,565.78" speed="5.56"/>
   </edge>
   <edge function="internal" id=":1544652456_5">
      <lane allow="delivery bicycle pedestrian" id=":1544652456_5_0" index="0" length="4.82" shape="538.99,567.55 537.51,567.69 536.67,567.30 536.47,566.40 536.92,564.98" speed="5.56"/>
   </edge>
   <edge function="internal" id=":1544652456_6">
      <lane allow="delivery bicycle pedestrian" id=":1544652456_6_0" index="0" length="5.21" shape="532.62,564.16 533.51,565.31 534.52,565.84 535.66,565.73 536.92,564.98" speed="5.56"/>
   </edge>
   <edge function="internal" id=":1544652456_7">
      <lane allow="delivery bicycle pedestrian" id=":1544652456_7_0" index="0" length="9.59" shape="532.62,564.16 537.33,572.51" speed="5.56"/>
   </edge>
   <edge function="internal" id=":1544652456_8">
      <lane allow="delivery bicycle pedestrian" id=":1544652456_8_0" index="0" length="4.82" shape="532.62,564.16 532.51,565.64 531.99,566.41 531.07,566.45 529.74,565.78" speed="5.56"/>
   </edge>
   <edge function="internal" id=":1544652457_0">
      <lane allow="delivery bicycle pedestrian" id=":1544652457_0_0" index="0" length="9.61" shape="542.41,588.19 537.68,579.83" speed="5.56"/>
   </edge>
   <edge function="internal" id=":1544652457_1">
      <lane allow="delivery bicycle pedestrian" id=":1544652457_1_0" index="0" length="10.46" shape="542.41,588.19 541.52,585.79 541.64,583.46 542.75,581.19 544.86,579.00" speed="5.56"/>
   </edge>
   <edge function="internal" id=":1544652457_2">
      <lane allow="delivery bicycle pedestrian" id=":1544652457_2_0" index="0" length="4.82" shape="542.41,588.19 542.51,586.71 543.03,585.94 543.95,585.90 545.28,586.57" speed="5.56"/>
   </edge>
   <edge function="internal" id=":1544652457_3">
      <lane allow="delivery bicycle pedestrian" id=":1544652457_3_0" index="0" length="5.81" shape="546.96,581.54 545.70,582.81 545.00,584.07 544.86,585.33 545.28,586.57" speed="5.56"/>
   </edge>
   <edge function="internal" id=":1544652457_4">
      <lane allow="delivery bicycle pedestrian" id=":1544652457_4_0" index="0" length="11.27" shape="546.96,581.54 544.26,583.19 541.81,583.46 539.62,582.34 537.68,579.83" speed="5.56"/>
   </edge>
   <edge function="internal" id=":1544652457_5">
      <lane allow="delivery bicycle pedestrian" id=":1544652457_5_0" index="0" length="4.82" shape="546.96,581.54 545.49,581.69 544.64,581.32 544.43,580.42 544.86,579.00" speed="5.56"/>
   </edge>
   <edge function="internal" id=":1544652457_6">
      <lane allow="delivery bicycle pedestrian" id=":1544652457_6_0" index="0" length="5.23" shape="540.55,578.21 541.45,579.37 542.47,579.89 543.60,579.77 544.86,579.00" speed="5.56"/>
   </edge>
   <edge function="internal" id=":1544652457_7">
      <lane allow="delivery bicycle pedestrian" id=":1544652457_7_0" index="0" length="9.61" shape="540.55,578.21 545.28,586.57" speed="5.56"/>
   </edge>
   <edge function="internal" id=":1544652457_8">
      <lane allow="delivery bicycle pedestrian" id=":1544652457_8_0" index="0" length="4.82" shape="540.55,578.21 540.44,579.69 539.93,580.45 539.00,580.50 537.68,579.83" speed="5.56"/>
   </edge>
   <edge function="internal" id=":1544652461_0">
      <lane disallow="tram rail_urban rail rail_electric ship" id=":1544652461_0_0" index="0" length="9.54" shape="594.48,657.28 586.62,662.68" speed="8.33"/>
   </edge>
   <edge function="internal" id=":1544652461_1">
      <lane allow="delivery bicycle pedestrian" id=":1544652461_1_0" index="0" length="5.25" shape="594.48,657.28 591.89,658.57 589.54,658.70" speed="6.95"/>
   </edge>
   <edge function="internal" id=":1544652461_2">
      <lane disallow="tram rail_urban rail rail_electric ship" id=":1544652461_2_0" index="0" length="2.41" shape="594.48,657.28 592.99,657.30 592.18,656.86" speed="8.33"/>
   </edge>
   <edge function="internal" id=":1544652461_9">
      <lane id=":1544652461_9_0" index="0" length="5.25" shape="589.54,658.70 587.41,657.67 585.52,655.49" speed="6.95"/>
   </edge>
   <edge function="internal" id=":1544652461_10">
      <lane id=":1544652461_10_0" index="0" length="2.41" shape="592.18,656.86 592.05,655.94 592.60,654.56" speed="8.33"/>
   </edge>
   <edge function="internal" id=":1544652461_3">
      <lane disallow="tram rail_urban rail rail_electric ship" id=":1544652461_3_0" index="0" length="5.04" shape="588.30,653.70 589.21,654.75 590.23,655.25 591.36,655.18 592.60,654.56" speed="6.95"/>
   </edge>
   <edge function="internal" id=":1544652461_4">
      <lane disallow="tram rail_urban rail rail_electric ship" id=":1544652461_4_0" index="0" length="10.35" shape="588.30,653.70 589.50,656.31 589.63,658.67 588.67,660.79 586.62,662.68" speed="6.95"/>
   </edge>
   <edge function="internal" id=":1544652461_5">
      <lane allow="delivery bicycle pedestrian" id=":1544652461_5_0" index="0" length="4.82" shape="588.30,653.70 588.27,655.19 587.80,655.98 586.89,656.08 585.52,655.49" speed="5.56"/>
   </edge>
   <edge function="internal" id=":1544652461_6">
      <lane allow="delivery bicycle pedestrian" id=":1544652461_6_0" index="0" length="5.13" shape="584.76,659.95 585.75,659.03 586.21,657.97 586.14,656.80 585.52,655.49" speed="6.95"/>
   </edge>
   <edge function="internal" id=":1544652461_7">
      <lane disallow="tram rail_urban rail rail_electric ship" id=":1544652461_7_0" index="0" length="9.51" shape="584.76,659.95 592.60,654.56" speed="8.33"/>
   </edge>
   <edge function="internal" id=":1544652461_8">
      <lane disallow="tram rail_urban rail rail_electric ship" id=":1544652461_8_0" index="0" length="2.41" shape="584.76,659.95 586.25,659.94 587.05,660.38" speed="8.33"/>
   </edge>
   <edge function="internal" id=":1544652461_11">
      <lane id=":1544652461_11_0" index="0" length="2.41" shape="587.05,660.38 587.18,661.30 586.62,662.68" speed="8.33"/>
   </edge>
   <edge function="internal" id=":1642184367_0">
      <lane disallow="tram rail_urban rail rail_electric ship" id=":1642184367_0_0" index="0" length="0.10" shape="264.10,521.27 264.09,521.25" speed="13.89"/>
   </edge>
   <edge function="internal" id=":1642184367_1">
      <lane disallow="tram rail_urban rail rail_electric ship" id=":1642184367_1_0" index="0" length="2.41" shape="264.10,521.27 263.91,519.79 264.26,518.94" speed="13.89"/>
   </edge>
   <edge function="internal" id=":1642184367_4">
      <lane id=":1642184367_4_0" index="0" length="2.41" shape="264.26,518.94 265.15,518.70 266.59,519.09" speed="13.89"/>
   </edge>
   <edge function="internal" id=":1642184367_2">
      <lane disallow="tram rail_urban rail rail_electric ship" id=":1642184367_2_0" index="0" length="0.10" shape="266.62,519.13 266.59,519.09" speed="13.89"/>
   </edge>
   <edge function="internal" id=":1642184367_3">
      <lane disallow="tram rail_urban rail rail_electric ship" id=":1642184367_3_0" index="0" length="2.41" shape="266.62,519.13 266.78,520.60 266.41,521.45" speed="13.89"/>
   </edge>
   <edge function="internal" id=":1642184367_5">
      <lane id=":1642184367_5_0" index="0" length="2.41" shape="266.41,521.45 265.52,521.66 264.09,521.25" speed="13.89"/>
   </edge>
   <edge function="internal" id=":177607834_0">