<?xml version="1.0" encoding="utf-8"?><!-- generated on 10/11/17 17:48:53 by SUMO netconvert Version 0.25.0
<?xml version="1.0" encoding="UTF-8"?>

<configuration xmlns:xsi="http://www.w3.org/2001/XMLSchema-instance" xsi:noNamespaceSchemaLocation="http://sumo.dlr.de/xsd/netconvertConfiguration.xsd">

    <input>
        <type-files value="osmNetconvert.typ.xml"/>
        <osm-files value="AC_Hoern_urban_800.osm"/>
    </input>

    <output>
        <output-file value="AC_Hoern_urban_800.net.xml"/>
    </output>

    <projection>
        <proj.utm value="true"/>
    </projection>

    <edge_removal>
        <remove-edges.by-type value="highway.track,highway.unsurfaced,highway.raceway,highway.bridleway,highway.path,highway.footway,highway.pedestrian,highway.cycleway,highway.step,highway.steps,highway.stairs,highway.bus_guideway,highway.ford,railway.rail,railway.tram,railway.light_rail,railway.subway,railway.preserved,railway.narrow_gauge,railway.monorail,railway.funicular"/>
    </edge_removal>

</configuration>
-->
<net version="0.25">
   <location convBoundary="0.00,0.00,805.62,857.70" netOffset="-292208.67,-5629043.44" origBoundary="6.052313,50.776126,6.063692,50.783581" projParameter="+proj=utm +zone=32 +ellps=WGS84 +datum=WGS84 +units=m +no_defs"/>
   <type allow="pedestrian" id="highway.bridleway" numLanes="1" oneway="1" priority="1" speed="2.78" width="2.00"/>
   <type allow="bus" id="highway.bus_guideway" numLanes="1" oneway="1" priority="1" speed="8.33"/>
   <type allow="bicycle" id="highway.cycleway" numLanes="1" oneway="0" priority="1" speed="5.56" width="1.00"/>
   <type allow="pedestrian" id="highway.footway" numLanes="1" oneway="1" priority="1" speed="8.33" width="2.00"/>
   <type allow="army" id="highway.ford" numLanes="1" oneway="0" priority="1" speed="2.78"/>
   <type disallow="tram rail_urban rail rail_electric ship" id="highway.living_street" numLanes="1" oneway="0" priority="3" speed="2.78"/>
   <type allow="private emergency authority army vip passenger hov taxi bus coach delivery truck trailer motorcycle evehicle custom1 custom2" id="highway.motorway" numLanes="2" oneway="1" priority="13" speed="44.44"/>
   <type allow="private emergency authority army vip passenger hov taxi bus coach delivery truck trailer motorcycle evehicle custom1 custom2" id="highway.motorway_link" numLanes="1" oneway="1" priority="12" speed="22.22"/>
   <type allow="bicycle pedestrian" id="highway.path" numLanes="1" oneway="1" priority="1" speed="2.78" width="2.00"/>
   <type allow="pedestrian" id="highway.pedestrian" numLanes="1" oneway="1" priority="1" speed="8.33" width="2.00"/>
   <type disallow="tram rail_urban rail rail_electric ship" id="highway.primary" numLanes="2" oneway="0" priority="9" speed="27.78"/>
   <type disallow="tram rail_urban rail rail_electric ship" id="highway.primary_link" numLanes="1" oneway="0" priority="8" speed="22.22"/>
   <type allow="vip" id="highway.raceway" numLanes="2" oneway="0" priority="14" speed="83.33"/>
   <type disallow="tram rail_urban rail rail_electric ship" id="highway.residential" numLanes="1" oneway="0" priority="4" speed="13.89"/>
   <type disallow="tram rail_urban rail rail_electric ship" id="highway.secondary" numLanes="2" oneway="0" priority="7" speed="27.78"/>
   <type disallow="tram rail_urban rail rail_electric ship" id="highway.secondary_link" numLanes="1" oneway="0" priority="6" speed="22.22"/>
   <type allow="delivery bicycle pedestrian" id="highway.service" numLanes="1" oneway="0" priority="2" speed="5.56"/>
   <type disallow="tram rail_urban rail rail_electric ship" id="highway.services" numLanes="1" oneway="0" priority="1" speed="8.33"/>
   <type allow="pedestrian" id="highway.stairs" numLanes="1" oneway="1" priority="1" speed="1.39" width="2.00"/>
   <type allow="pedestrian" id="highway.step" numLanes="1" oneway="1" priority="1" speed="1.39" width="2.00"/>
   <type allow="pedestrian" id="highway.steps" numLanes="1" oneway="1" priority="1" speed="1.39" width="2.00"/>
   <type disallow="tram rail_urban rail rail_electric ship" id="highway.tertiary" numLanes="1" oneway="0" priority="6" speed="22.22"/>
   <type disallow="tram rail_urban rail rail_electric ship" id="highway.tertiary_link" numLanes="1" oneway="0" priority="5" speed="22.22"/>
   <type disallow="tram rail_urban rail rail_electric ship" id="highway.track" numLanes="1" oneway="0" priority="1" speed="5.56"/>
   <type disallow="tram rail_urban rail rail_electric bicycle pedestrian ship" id="highway.trunk" numLanes="2" oneway="0" priority="11" speed="27.78"/>
   <type disallow="tram rail_urban rail rail_electric bicycle pedestrian ship" id="highway.trunk_link" numLanes="1" oneway="0" priority="10" speed="22.22"/>
   <type disallow="tram rail_urban rail rail_electric ship" id="highway.unclassified" numLanes="1" oneway="0" priority="5" speed="13.89"/>
   <type disallow="tram rail_urban rail rail_electric ship" id="highway.unsurfaced" numLanes="1" oneway="0" priority="1" speed="8.33"/>
   <type allow="rail_urban" id="railway.light_rail" numLanes="1" oneway="1" priority="15" speed="27.78"/>
   <type allow="rail" id="railway.preserved" numLanes="1" oneway="1" priority="15" speed="27.78"/>
   <type allow="rail rail_electric" id="railway.rail" numLanes="1" oneway="1" priority="15" speed="83.33"/>
   <type allow="rail_urban" id="railway.subway" numLanes="1" oneway="1" priority="15" speed="27.78"/>
   <type allow="tram" id="railway.tram" numLanes="1" oneway="1" priority="15" speed="13.89"/>
   <edge function="internal" id=":1129524393_0">
      <lane disallow="tram rail_urban rail rail_electric ship" id=":1129524393_0_0" index="0" length="0.20" shape="60.49,290.90 60.35,291.04" speed="8.33"/>
   </edge>
   <edge function="internal" id=":1129524393_1">
      <lane disallow="tram rail_urban rail rail_electric ship" id=":1129524393_1_0" index="0" length="2.41" shape="60.49,290.90 59.02,291.12 58.16,290.78" speed="8.33"/>
   </edge>
   <edge function="internal" id=":1129524393_4">
      <lane id=":1129524393_4_0" index="0" length="2.41" shape="58.16,290.78 57.91,289.89 58.28,288.45" speed="8.33"/>
   </edge>
   <edge function="internal" id=":1129524393_2">
      <lane disallow="tram rail_urban rail rail_electric ship" id=":1129524393_2_0" index="0" length="0.61" shape="57.86,288.88 58.28,288.45" speed="8.33"/>
   </edge>
   <edge function="internal" id=":1129524393_3">
      <lane disallow="tram rail_urban rail rail_electric ship" id=":1129524393_3_0" index="0" length="2.41" shape="57.86,288.88 59.29,288.49 60.18,288.71" speed="8.33"/>
   </edge>
   <edge function="internal" id=":1129524393_5">
      <lane id=":1129524393_5_0" index="0" length="2.41" shape="60.18,288.71 60.54,289.56 60.35,291.04" speed="8.33"/>
   </edge>
   <edge function="internal" id=":1132229929_0">
      <lane allow="delivery bicycle pedestrian" id=":1132229929_0_0" index="0" length="0.10" shape="589.02,302.04 589.01,302.04" speed="5.56"/>
   </edge>
   <edge function="internal" id=":1132229929_1">
      <lane allow="delivery bicycle pedestrian" id=":1132229929_1_0" index="0" length="2.41" shape="589.02,302.04 588.06,300.90 587.90,299.99" speed="5.56"/>
   </edge>
   <edge function="internal" id=":1132229929_4">
      <lane id=":1132229929_4_0" index="0" length="2.41" shape="587.90,299.99 588.53,299.32 589.95,298.87" speed="5.56"/>
   </edge>
   <edge function="internal" id=":1132229929_2">
      <lane allow="delivery bicycle pedestrian" id=":1132229929_2_0" index="0" length="0.10" shape="589.95,298.88 589.95,298.87" speed="5.56"/>
   </edge>
   <edge function="internal" id=":1132229929_3">
      <lane allow="delivery bicycle pedestrian" id=":1132229929_3_0" index="0" length="2.41" shape="589.95,298.88 590.91,300.02 591.07,300.93" speed="5.56"/>
   </edge>
   <edge function="internal" id=":1132229929_5">
      <lane id=":1132229929_5_0" index="0" length="2.41" shape="591.07,300.93 590.44,301.60 589.01,302.04" speed="5.56"/>
   </edge>
   <edge function="internal" id=":1132229937_0">
      <lane allow="delivery bicycle pedestrian" id=":1132229937_0_0" index="0" length="0.10" shape="593.96,284.54 593.87,284.51" speed="5.56"/>
   </edge>
   <edge function="internal" id=":1132229937_1">
      <lane allow="delivery bicycle pedestrian" id=":1132229937_1_0" index="0" length="2.41" shape="593.96,284.54 592.97,283.43 592.77,282.53" speed="5.56"/>
   </edge>
   <edge function="internal" id=":1132229937_4">
      <lane id=":1132229937_4_0" index="0" length="2.41" shape="592.77,282.53 593.38,281.83 594.78,281.34" speed="5.56"/>
   </edge>
   <edge function="internal" id=":1132229937_2">
      <lane allow="delivery bicycle pedestrian" id=":1132229937_2_0" index="0" length="0.10" shape="594.87,281.37 594.78,281.34" speed="5.56"/>
   </edge>
   <edge function="internal" id=":1132229937_3">
      <lane allow="delivery bicycle pedestrian" id=":1132229937_3_0" index="0" length="2.41" shape="594.87,281.37 595.80,282.53 595.94,283.44" speed="5.56"/>
   </edge>
   <edge function="internal" id=":1132229937_5">
      <lane id=":1132229937_5_0" index="0" length="2.41" shape="595.94,283.44 595.30,284.10 593.87,284.51" speed="5.56"/>
   </edge>
   <edge function="internal" id=":1132229949_0">
      <lane allow="delivery bicycle pedestrian" id=":1132229949_0_0" index="0" length="0.10" shape="595.81,342.07 595.81,342.07" speed="5.56"/>
   </edge>
   <edge function="internal" id=":1132229949_1">
      <lane allow="delivery bicycle pedestrian" id=":1132229949_1_0" index="0" length="2.41" shape="595.81,342.07 594.68,343.03 593.77,343.20" speed="5.56"/>
   </edge>
   <edge function="internal" id=":1132229949_4">
      <lane id=":1132229949_4_0" index="0" length="2.41" shape="593.77,343.20 593.09,342.58 592.64,341.16" speed="5.56"/>
   </edge>
   <edge function="internal" id=":1132229949_2">
      <lane allow="delivery bicycle pedestrian" id=":1132229949_2_0" index="0" length="0.10" shape="592.64,341.16 592.64,341.16" speed="5.56"/>
   </edge>
   <edge function="internal" id=":1132229949_3">
      <lane allow="delivery bicycle pedestrian" id=":1132229949_3_0" index="0" length="2.41" shape="592.64,341.16 593.78,340.20 594.68,340.03" speed="5.56"/>
   </edge>
   <edge function="internal" id=":1132229949_5">
      <lane id=":1132229949_5_0" index="0" length="2.41" shape="594.68,340.03 595.36,340.65 595.81,342.07" speed="5.56"/>
   </edge>
   <edge function="internal" id=":1132229959_0">
      <lane allow="delivery bicycle pedestrian" id=":1132229959_0_0" index="0" length="5.00" shape="559.01,273.44 557.66,273.24 556.56,273.51 555.73,274.27 555.15,275.51" speed="5.56"/>
   </edge>
   <edge function="internal" id=":1132229959_1">
      <lane allow="delivery bicycle pedestrian" id=":1132229959_1_0" index="0" length="9.46" shape="559.01,273.44 549.99,270.59" speed="5.56"/>
   </edge>
   <edge function="internal" id=":1132229959_2">
      <lane allow="delivery bicycle pedestrian" id=":1132229959_2_0" index="0" length="4.82" shape="559.01,273.44 558.07,272.30 557.91,271.39 558.55,270.72 559.97,270.29" speed="5.56"/>
   </edge>
   <edge function="internal" id=":1132229959_3">
      <lane allow="delivery bicycle pedestrian" id=":1132229959_3_0" index="0" length="9.38" shape="551.02,267.46 559.97,270.29" speed="5.56"/>
   </edge>
   <edge function="internal" id=":1132229959_4">
      <lane allow="delivery bicycle pedestrian" id=":1132229959_4_0" index="0" length="10.26" shape="551.02,267.46 553.52,268.70 555.04,270.45 555.58,272.72 555.15,275.51" speed="5.56"/>
   </edge>
   <edge function="internal" id=":1132229959_5">
      <lane allow="delivery bicycle pedestrian" id=":1132229959_5_0" index="0" length="4.82" shape="551.02,267.46 551.94,268.63 552.07,269.54 551.42,270.20 549.99,270.59" speed="5.56"/>
   </edge>
   <edge function="internal" id=":1132229959_6">
      <lane allow="delivery bicycle pedestrian" id=":1132229959_6_0" index="0" length="5.03" shape="551.99,274.55 552.21,273.18 551.95,272.06 551.21,271.20 549.99,270.59" speed="5.56"/>
   </edge>
   <edge function="internal" id=":1132229959_7">
      <lane allow="delivery bicycle pedestrian" id=":1132229959_7_0" index="0" length="10.32" shape="551.99,274.55 553.19,271.99 554.92,270.42 557.18,269.86 559.97,270.29" speed="5.56"/>
   </edge>
   <edge function="internal" id=":1132229959_8">
      <lane allow="delivery bicycle pedestrian" id=":1132229959_8_0" index="0" length="4.82" shape="551.99,274.55 553.14,273.61 554.05,273.45 554.72,274.09 555.15,275.51" speed="5.56"/>
   </edge>
   <edge function="internal" id=":1132229975_0">
      <lane allow="delivery bicycle pedestrian" id=":1132229975_0_0" index="0" length="0.10" shape="536.70,395.32 536.70,395.31" speed="5.56"/>
   </edge>
   <edge function="internal" id=":1132229975_1">
      <lane allow="delivery bicycle pedestrian" id=":1132229975_1_0" index="0" length="2.41" shape="536.70,395.32 535.23,395.51 534.37,395.16" speed="5.56"/>
   </edge>
   <edge function="internal" id=":1132229975_4">
      <lane id=":1132229975_4_0" index="0" length="2.41" shape="534.37,395.16 534.14,394.27 534.53,392.83" speed="5.56"/>
   </edge>
   <edge function="internal" id=":1132229975_2">
      <lane allow="delivery bicycle pedestrian" id=":1132229975_2_0" index="0" length="2.27" shape="532.91,394.43 534.53,392.83" speed="5.56"/>
   </edge>
   <edge function="internal" id=":1132229975_3">
      <lane allow="delivery bicycle pedestrian" id=":1132229975_3_0" index="0" length="2.84" shape="532.91,394.43 534.19,393.23 535.25,392.97" speed="5.56"/>
   </edge>
   <edge function="internal" id=":1132229975_5">
      <lane id=":1132229975_5_0" index="0" length="2.84" shape="535.25,392.97 536.08,393.67 536.70,395.31" speed="5.56"/>
   </edge>
   <edge function="internal" id=":1168330589_0">
      <lane disallow="tram rail_urban rail rail_electric ship" id=":1168330589_0_0" index="0" length="0.19" shape="284.50,452.27 284.43,452.09" speed="6.95"/>
   </edge>
   <edge function="internal" id=":1168330589_1">
      <lane allow="delivery bicycle pedestrian" id=":1168330589_1_0" index="0" length="2.41" shape="284.50,452.27 284.73,450.79 285.31,450.07" speed="5.56"/>
   </edge>
   <edge function="internal" id=":1168330589_4">
      <lane id=":1168330589_4_0" index="0" length="2.41" shape="285.31,450.07 286.23,450.10 287.50,450.88" speed="5.56"/>
   </edge>
   <edge function="internal" id=":1168330589_2">
      <lane allow="delivery bicycle pedestrian" id=":1168330589_2_0" index="0" length="0.10" shape="287.48,450.84 287.50,450.88" speed="6.95"/>
   </edge>
   <edge function="internal" id=":1168330589_3">
      <lane disallow="tram rail_urban rail rail_electric ship" id=":1168330589_3_0" index="0" length="2.41" shape="287.48,450.84 287.19,452.30 286.58,452.99" speed="8.33"/>
   </edge>
   <edge function="internal" id=":1168330589_5">
      <lane id=":1168330589_5_0" index="0" length="2.41" shape="286.58,452.99 285.66,452.92 284.43,452.09" speed="8.33"/>
   </edge>
   <edge function="internal" id=":1180629837_0">
      <lane disallow="tram rail_urban rail rail_electric ship" id=":1180629837_0_0" index="0" length="5.03" shape="250.40,608.67 249.67,607.50 248.74,606.86 247.61,606.74 246.29,607.14" speed="6.95"/>
   </edge>
   <edge function="internal" id=":1180629837_1">
      <lane disallow="tram rail_urban rail rail_electric ship" id=":1180629837_1_0" index="0" length="10.15" shape="250.40,608.67 249.60,605.97 249.77,603.61 250.90,601.61 253.00,599.97" speed="6.95"/>
   </edge>
   <edge function="internal" id=":1180629837_2">
      <lane allow="delivery bicycle pedestrian" id=":1180629837_2_0" index="0" length="4.82" shape="250.40,608.67 250.65,607.21 251.24,606.50 252.16,606.54 253.42,607.33" speed="5.56"/>
   </edge>
   <edge function="internal" id=":1180629837_3">
      <lane allow="delivery bicycle pedestrian" id=":1180629837_3_0" index="0" length="5.20" shape="254.63,602.84 253.59,603.66 253.05,604.69 252.99,605.91 253.42,607.33" speed="6.95"/>
   </edge>
   <edge function="internal" id=":1180629837_4">
      <lane disallow="tram rail_urban rail rail_electric ship" id=":1180629837_4_0" index="0" length="9.38" shape="254.63,602.84 246.29,607.14" speed="8.33"/>
   </edge>
   <edge function="internal" id=":1180629837_5">
      <lane disallow="tram rail_urban rail rail_electric ship" id=":1180629837_5_0" index="0" length="2.54" shape="254.63,602.84 253.15,602.73 252.38,602.22 252.37,602.09" speed="8.33"/>
   </edge>
   <edge function="internal" id=":1180629837_9">
      <lane id=":1180629837_9_0" index="0" length="2.28" shape="252.37,602.09 252.33,601.30 253.00,599.97" speed="8.33"/>
   </edge>
   <edge function="internal" id=":1180629837_6">
      <lane disallow="tram rail_urban rail rail_electric ship" id=":1180629837_6_0" index="0" length="9.13" shape="244.89,604.16 253.00,599.97" speed="8.33"/>
   </edge>
   <edge function="internal" id=":1180629837_7">
      <lane allow="delivery bicycle pedestrian" id=":1180629837_7_0" index="0" length="5.02" shape="244.89,604.16 247.63,603.32 249.77,603.55" speed="6.95"/>
   </edge>
   <edge function="internal" id=":1180629837_8">
      <lane disallow="tram rail_urban rail rail_electric ship" id=":1180629837_8_0" index="0" length="2.41" shape="244.89,604.16 246.36,604.38 247.08,604.95" speed="8.33"/>
   </edge>
   <edge function="internal" id=":1180629837_10">
      <lane id=":1180629837_10_0" index="0" length="5.41" shape="249.77,603.55 249.96,603.57 251.89,604.91 253.42,607.33" speed="6.95"/>
   </edge>
   <edge function="internal" id=":1180629837_11">
      <lane id=":1180629837_11_0" index="0" length="2.41" shape="247.08,604.95 247.06,605.87 246.29,607.14" speed="8.33"/>
   </edge>
   <edge function="internal" id=":1180629839_0">
      <lane allow="delivery bicycle pedestrian" id=":1180629839_0_0" index="0" length="4.82" shape="307.31,672.76 308.05,674.04 308.06,674.97 307.33,675.53 305.85,675.72" speed="5.56"/>
   </edge>
   <edge function="internal" id=":1180629841_0">
      <lane allow="delivery bicycle pedestrian" id=":1180629841_0_0" index="0" length="5.22" shape="269.15,649.37 268.29,648.38 267.24,647.87 266.00,647.83 264.57,648.26" speed="5.56"/>
   </edge>
   <edge function="internal" id=":1180629841_1">
      <lane allow="delivery bicycle pedestrian" id=":1180629841_1_0" index="0" length="9.29" shape="269.15,649.37 264.83,641.15" speed="5.56"/>
   </edge>
   <edge function="internal" id=":1180629841_2">
      <lane allow="delivery bicycle pedestrian" id=":1180629841_2_0" index="0" length="4.82" shape="269.15,649.37 269.20,647.89 269.68,647.10 270.60,647.02 271.95,647.64" speed="5.56"/>
   </edge>
   <edge function="internal" id=":1180629841_3">
      <lane allow="delivery bicycle pedestrian" id=":1180629841_3_0" index="0" length="8.84" shape="267.85,639.81 271.95,647.64" speed="5.56"/>
   </edge>
   <edge function="internal" id=":1180629841_4">
      <lane allow="delivery bicycle pedestrian" id=":1180629841_4_0" index="0" length="10.35" shape="267.85,639.81 268.62,642.54 268.33,644.86 266.98,646.76 264.57,648.26" speed="5.56"/>
   </edge>
   <edge function="internal" id=":1180629841_5">
      <lane allow="delivery bicycle pedestrian" id=":1180629841_5_0" index="0" length="4.82" shape="267.85,639.81 267.60,641.27 267.01,641.98 266.09,641.94 264.83,641.15" speed="5.56"/>
   </edge>
   <edge function="internal" id=":1180629841_6">
      <lane allow="delivery bicycle pedestrian" id=":1180629841_6_0" index="0" length="5.01" shape="263.25,645.23 264.41,644.51 265.07,643.59 265.21,642.47 264.83,641.15" speed="5.56"/>
   </edge>
   <edge function="internal" id=":1180629841_7">
      <lane allow="delivery bicycle pedestrian" id=":1180629841_7_0" index="0" length="10.00" shape="263.25,645.23 265.92,644.45 268.26,644.59 270.27,645.65 271.95,647.64" speed="5.56"/>
   </edge>
   <edge function="internal" id=":1180629841_8">
      <lane allow="delivery bicycle pedestrian" id=":1180629841_8_0" index="0" length="4.82" shape="263.25,645.23 264.71,645.49 265.42,646.08 265.37,647.01 264.57,648.26" speed="5.56"/>
   </edge>
   <edge function="internal" id=":1210952778_0">
      <lane disallow="tram rail_urban rail rail_electric ship" id=":1210952778_0_0" index="0" length="9.52" shape="171.97,498.41 168.19,489.66" speed="8.33"/>
   </edge>
   <edge function="internal" id=":1210952778_1">
      <lane allow="delivery bicycle pedestrian" id=":1210952778_1_0" index="0" length="7.90" shape="171.97,498.41 171.02,495.77 170.76,493.70 171.18,492.20 172.28,491.26" speed="6.95"/>
   </edge>
   <edge function="internal" id=":1210952778_2">
      <lane disallow="tram rail_urban rail rail_electric ship" id=":1210952778_2_0" index="0" length="7.92" shape="173.64,494.26 172.20,494.48 170.81,493.78 169.48,492.18 168.19,489.66" speed="6.95"/>
   </edge>
   <edge function="internal" id=":1210952778_3">
      <lane allow="delivery bicycle pedestrian" id=":1210952778_3_0" index="0" length="4.82" shape="173.64,494.26 172.18,494.02 171.46,493.44 171.49,492.52 172.28,491.26" speed="5.56"/>
   </edge>
   <edge function="internal" id=":1210952829_0">
      <lane allow="delivery bicycle pedestrian" id=":1210952829_0_0" index="0" length="4.82" shape="205.04,476.39 206.51,476.63 207.22,477.21 207.19,478.13 206.40,479.39" speed="5.56"/>
   </edge>
   <edge function="internal" id=":1210952929_0">
      <lane disallow="tram rail_urban rail rail_electric ship" id=":1210952929_0_0" index="0" length="9.85" shape="200.26,563.10 196.19,554.13" speed="8.33"/>
   </edge>
   <edge function="internal" id=":1210952929_1">
      <lane disallow="tram rail_urban rail rail_electric ship" id=":1210952929_1_0" index="0" length="8.60" shape="200.26,563.10 199.27,560.52 198.97,558.33 199.36,556.52 200.44,555.10" speed="6.94"/>
   </edge>
   <edge function="internal" id=":1210952929_2">
      <lane disallow="tram rail_urban rail rail_electric ship" id=":1210952929_2_0" index="0" length="8.84" shape="202.60,557.59 200.85,558.54 199.21,558.28 197.65,556.80 196.19,554.13" speed="6.94"/>
   </edge>
   <edge function="internal" id=":1210952929_3">
      <lane disallow="tram rail_urban rail rail_electric ship" id=":1210952929_3_0" index="0" length="4.82" shape="202.60,557.59 201.12,557.78 200.27,557.42 200.04,556.53 200.44,555.10" speed="5.56"/>
   </edge>
   <edge function="internal" id=":1210953158_0">
      <lane disallow="tram rail_urban rail rail_electric ship" id=":1210953158_0_0" index="0" length="4.82" shape="249.66,512.45 251.14,512.27 251.99,512.62 252.22,513.51 251.82,514.95" speed="5.56"/>
   </edge>
   <edge function="internal" id=":1215161067_0">
      <lane allow="delivery bicycle pedestrian" id=":1215161067_0_0" index="0" length="5.19" shape="524.99,432.79 523.53,432.59 522.38,432.88 521.53,433.67 521.00,434.94" speed="6.95"/>
   </edge>
   <edge function="internal" id=":1215161067_1">
      <lane disallow="tram rail_urban rail rail_electric ship" id=":1215161067_1_0" index="0" length="9.67" shape="524.99,432.79 515.69,430.12" speed="8.33"/>
   </edge>
   <edge function="internal" id=":1215161067_2">
      <lane allow="delivery bicycle pedestrian" id=":1215161067_2_0" index="0" length="5.37" shape="524.99,432.79 522.25,431.60 520.64,429.83" speed="6.95"/>
   </edge>
   <edge function="internal" id=":1215161067_3">
      <lane disallow="tram rail_urban rail rail_electric ship" id=":1215161067_3_0" index="0" length="2.41" shape="524.99,432.79 524.01,431.66 523.83,430.76" speed="8.33"/>
   </edge>
   <edge function="internal" id=":1215161067_16">
      <lane id=":1215161067_16_0" index="0" length="5.37" shape="520.64,429.83 520.13,427.49 520.74,424.58" speed="6.95"/>
   </edge>
   <edge function="internal" id=":1215161067_17">
      <lane id=":1215161067_17_0" index="0" length="2.41" shape="523.83,430.76 524.45,430.07 525.86,429.60" speed="8.33"/>
   </edge>
   <edge function="internal" id=":1215161067_4">
      <lane disallow="tram rail_urban rail rail_electric ship" id=":1215161067_4_0" index="0" length="5.10" shape="523.84,425.71 523.55,427.09 523.79,428.20 524.56,429.04 525.86,429.60" speed="6.95"/>
   </edge>
   <edge function="internal" id=":1215161067_5">
      <lane allow="delivery bicycle pedestrian" id=":1215161067_5_0" index="0" length="9.66" shape="523.84,425.71 521.00,434.94" speed="5.56"/>
   </edge>
   <edge function="internal" id=":1215161067_6">
      <lane disallow="tram rail_urban rail rail_electric ship" id=":1215161067_6_0" index="0" length="10.44" shape="523.84,425.71 522.49,428.30 520.68,429.91 518.41,430.51 515.69,430.12" speed="6.95"/>
   </edge>
   <edge function="internal" id=":1215161067_7">
      <lane allow="delivery bicycle pedestrian" id=":1215161067_7_0" index="0" length="4.82" shape="523.84,425.71 522.65,426.59 521.73,426.69 521.10,426.02 520.74,424.58" speed="5.56"/>
   </edge>
   <edge function="internal" id=":1215161067_8">
      <lane allow="delivery bicycle pedestrian" id=":1215161067_8_0" index="0" length="5.34" shape="516.64,426.96 517.99,427.14 519.12,426.80 520.04,425.95 520.74,424.58" speed="6.95"/>
   </edge>
   <edge function="internal" id=":1215161067_9">
      <lane disallow="tram rail_urban rail rail_electric ship" id=":1215161067_9_0" index="0" length="9.59" shape="516.64,426.96 525.86,429.60" speed="8.33"/>
   </edge>
   <edge function="internal" id=":1215161067_10">
      <lane allow="delivery bicycle pedestrian" id=":1215161067_10_0" index="0" length="5.07" shape="516.64,426.96 519.13,428.13 520.69,429.85" speed="6.95"/>
   </edge>
   <edge function="internal" id=":1215161067_11">
      <lane disallow="tram rail_urban rail rail_electric ship" id=":1215161067_11_0" index="0" length="2.41" shape="516.64,426.96 517.59,428.11 517.75,429.01" speed="8.33"/>
   </edge>
   <edge function="internal" id=":1215161067_18">
      <lane id=":1215161067_18_0" index="0" length="5.20" shape="520.69,429.85 521.31,432.12 521.00,434.94" speed="6.95"/>
   </edge>
   <edge function="internal" id=":1215161067_19">
      <lane id=":1215161067_19_0" index="0" length="2.41" shape="517.75,429.01 517.11,429.69 515.69,430.12" speed="8.33"/>
   </edge>
   <edge function="internal" id=":1215161067_12">
      <lane disallow="tram rail_urban rail rail_electric ship" id=":1215161067_12_0" index="0" length="5.12" shape="517.80,434.14 517.96,432.71 517.67,431.56 516.91,430.70 515.69,430.12" speed="6.95"/>
   </edge>
   <edge function="internal" id=":1215161067_13">
      <lane allow="delivery bicycle pedestrian" id=":1215161067_13_0" index="0" length="10.01" shape="517.80,434.14 518.53,431.26 519.09,429.30 519.73,427.37 520.74,424.58" speed="5.56"/>
   </edge>
   <edge function="internal" id=":1215161067_14">
      <lane disallow="tram rail_urban rail rail_electric ship" id=":1215161067_14_0" index="0" length="10.60" shape="517.80,434.14 518.90,431.49 520.60,429.85 522.93,429.22 525.86,429.60" speed="6.95"/>
   </edge>
   <edge function="internal" id=":1215161067_15">
      <lane allow="delivery bicycle pedestrian" id=":1215161067_15_0" index="0" length="4.82" shape="517.80,434.14 518.90,433.14 519.80,432.94 520.50,433.54 521.00,434.94" speed="5.56"/>
   </edge>
   <edge function="internal" id=":1216547745_0">
      <lane allow="delivery bicycle pedestrian" id=":1216547745_0_0" index="0" length="4.82" shape="41.86,816.56 41.43,817.99 40.76,818.62 39.85,818.47 38.70,817.53" speed="5.56"/>
   </edge>
   <edge function="internal" id=":1223037298_0">
      <lane disallow="tram rail_urban rail rail_electric ship" id=":1223037298_0_0" index="0" length="7.82" shape="453.53,223.94 452.21,223.49 451.27,222.26 450.72,220.25 450.55,217.46" speed="11.11"/>
   </edge>
   <edge function="internal" id=":1223037298_1">
      <lane disallow="tram rail_urban rail rail_electric ship" id=":1223037298_1_0" index="0" length="4.82" shape="453.53,223.94 452.33,223.07 451.95,222.22 452.40,221.42 453.67,220.64" speed="8.33"/>
   </edge>
   <edge function="internal" id=":1223037298_2">
      <lane disallow="tram rail_urban rail rail_electric ship" id=":1223037298_2_0" index="0" length="9.45" shape="450.31,226.91 450.55,217.46" speed="13.89"/>
   </edge>
   <edge function="internal" id=":1223037298_3">
      <lane disallow="tram rail_urban rail rail_electric ship" id=":1223037298_3_0" index="0" length="7.84" shape="450.31,226.91 450.62,224.12 451.28,222.15 452.30,220.99 453.67,220.64" speed="11.11"/>
   </edge>
   <edge function="internal" id=":1223037300_0">
      <lane disallow="tram rail_urban rail rail_electric ship" id=":1223037300_0_0" index="0" length="5.27" shape="449.26,168.15 448.97,166.69 448.29,165.77 447.20,165.40 445.72,165.58" speed="11.11"/>
   </edge>
   <edge function="internal" id=":1223037300_1">
      <lane disallow="tram rail_urban rail rail_electric ship" id=":1223037300_1_0" index="0" length="10.09" shape="449.26,168.15 449.10,165.17 448.93,163.12 448.66,161.07 448.19,158.13" speed="13.89"/>
   </edge>
   <edge function="internal" id=":1223037300_2">
      <lane disallow="tram rail_urban rail rail_electric ship" id=":1223037300_2_0" index="0" length="8.64" shape="449.26,168.15 449.29,165.11 449.74,162.81 450.60,161.28 451.88,160.50" speed="11.11"/>
   </edge>
   <edge function="internal" id=":1223037300_3">
      <lane disallow="tram rail_urban rail rail_electric ship" id=":1223037300_3_0" index="0" length="7.27" shape="452.74,163.68 445.72,165.58" speed="8.33"/>
   </edge>
   <edge function="internal" id=":1223037300_4">
      <lane disallow="tram rail_urban rail rail_electric ship" id=":1223037300_4_0" index="0" length="3.17" shape="452.74,163.68 451.15,163.69 449.86,162.77" speed="11.11"/>
   </edge>
   <edge function="internal" id=":1223037300_5">
      <lane disallow="tram rail_urban rail rail_electric ship" id=":1223037300_5_0" index="0" length="2.41" shape="452.74,163.68 451.33,163.21 450.72,162.52" speed="8.33"/>
   </edge>
   <edge function="internal" id=":1223037300_9">
      <lane id=":1223037300_9_0" index="0" length="4.97" shape="449.86,162.77 448.87,160.91 448.19,158.13" speed="11.11"/>
   </edge>