<?xml version="1.0" encoding="utf-8"?><!-- generated on 10/11/17 17:48:58 by SUMO polyconvert Version 0.25.0
<?xml version="1.0" encoding="UTF-8"?>

<configuration xmlns:xsi="http://www.w3.org/2001/XMLSchema-instance" xsi:noNamespaceSchemaLocation="http://sumo.dlr.de/xsd/polyconvertConfiguration.xsd">

    <input>
        <net-file value="AC_Hoern_urban_800.net.xml"/>
        <osm-files value="AC_Hoern_urban_800.osm"/>
        <type-file value="osmPolyconvert.typ.xml"/>
    </input>

    <output>
        <output-file value="AC_Hoern_urban_800.poly.xml"/>
    </output>

    <projection>
        <proj.utm value="true"/>
    </projection>

    <processing>
        <poi-layer-offset value="5"/>
    </processing>

</configuration>
-->
<additional>
   <location convBoundary="-14.47,-2.59,805.62,858.54" netOffset="-292208.67,-5629043.44" origBoundary="6.052313,50.776101,6.063696,50.783599" projParameter="+proj=utm +zone=32 +ellps=WGS84 +datum=WGS84 +units=m +no_defs"/>
   <poly color="red" fill="1" id="101601694" layer="-1.00" shape="57.73,644.71 63.02,642.47 65.54,648.43 60.25,650.66 57.73,644.71" type="building"/>
   <poly color="red" fill="1" id="101601695" layer="-1.00" shape="50.40,604.76 65.88,598.03 68.63,604.25 60.81,607.71 60.31,606.58 59.10,607.12 52.69,609.94 50.40,604.76" type="building"/>
   <poly color="red" fill="1" id="101601696" layer="-1.00" shape="64.71,641.07 61.64,633.17 78.50,626.01 80.89,632.07 77.97,633.29 75.53,634.30 76.34,636.24 64.71,641.07" type="building"/>
   <poly color="red" fill="1" id="101601697" layer="-1.00" shape="55.22,592.93 53.74,593.62 46.83,596.65 48.70,600.90 57.10,597.19 56.50,595.82 55.22,592.93" type="building"/>
   <poly color="red" fill="1" id="101601698" layer="-1.00" shape="73.99,644.73 75.36,647.89 66.88,651.55 65.54,648.43 73.99,644.73" type="building"/>
   <poly color="red" fill="1" id="101601699" layer="-1.00" shape="90.27,651.90 87.73,645.97 79.85,649.35 79.16,647.75 78.63,646.50 75.36,647.89 66.88,651.55 70.71,660.20 90.27,651.90" type="building"/>
   <poly color="red" fill="1" id="101601700" layer="-1.00" shape="54.35,620.99 58.15,619.24 64.24,616.68 66.18,621.08 61.12,623.27 60.68,622.25 55.81,624.36 54.35,620.99" type="building"/>
   <poly color="red" fill="0" id="104657387" layer="-1.00" shape="537.18,827.14 533.72,830.12 529.16,834.05" type="building"/>
   <poly color="red" fill="1" id="105046639" layer="-1.00" shape="172.84,479.59 176.88,488.39 181.87,486.05 187.52,483.41 185.26,478.48 183.52,474.71 172.84,479.59" type="building"/>
   <poly color="red" fill="1" id="105046643" layer="-1.00" shape="210.49,536.39 217.03,533.65 219.74,532.50 214.82,520.75 205.55,524.63 206.45,526.67 210.49,536.39" type="building"/>
   <poly color="red" fill="1" id="105046650" layer="-1.00" shape="189.00,428.08 192.42,435.97 202.94,431.44 199.52,423.54 193.90,426.00 189.00,428.08" type="building"/>
   <poly color="red" fill="1" id="105046651" layer="-1.00" shape="181.49,470.48 183.52,474.71 185.26,478.48 192.35,475.17 188.59,467.16 187.06,467.88 181.49,470.48" type="building"/>
   <poly color="red" fill="1" id="105046659" layer="-1.00" shape="233.99,515.42 240.45,512.57 243.12,511.46 242.67,510.48 240.36,504.78 238.34,500.27 229.07,504.35 230.01,506.47 233.99,515.42" type="building"/>
   <poly color="red" fill="1" id="105046662" layer="-1.00" shape="138.79,387.84 141.72,396.93 147.04,395.22 152.34,393.52 149.41,384.43 138.79,387.84" type="building"/>
   <poly color="red" fill="1" id="105046663" layer="-1.00" shape="165.89,464.28 168.58,470.40 172.97,468.48 176.65,466.87 175.55,464.38 179.78,462.53 178.18,458.89 165.89,464.28" type="building"/>
   <poly color="red" fill="1" id="105046670" layer="-1.00" shape="180.98,495.60 183.73,502.24 184.16,503.28 183.85,503.41 185.18,506.61 195.37,502.40 190.85,491.47 187.63,492.92 180.98,495.60" type="building"/>
   <poly color="red" fill="1" id="105046672" layer="-1.00" shape="225.18,521.31 228.88,519.67 234.71,517.07 233.99,515.42 230.01,506.47 220.48,510.70 225.18,521.31" type="building"/>
   <poly color="red" fill="1" id="105046677" layer="-1.00" shape="202.23,465.97 206.09,474.60 219.03,468.84 215.17,460.21 202.23,465.97" type="building"/>
   <poly color="red" fill="1" id="105046679" layer="-1.00" shape="152.38,429.24 155.85,437.26 167.99,432.01 167.69,431.31 164.52,423.98 159.68,426.08 152.38,429.24" type="building"/>
   <poly color="red" fill="1" id="105046685" layer="-1.00" shape="164.56,448.21 161.14,440.21 170.87,436.05 176.74,433.54 180.17,441.53 170.95,445.47 164.56,448.21" type="building"/>
   <poly color="red" fill="1" id="105046687" layer="-1.00" shape="148.40,418.04 149.11,419.69 150.92,423.85 162.32,418.91 159.74,412.92 158.58,413.43 157.42,410.76 150.48,413.74 151.71,416.43 148.40,418.04" type="building"/>
   <poly color="red" fill="1" id="105046691" layer="-1.00" shape="134.38,372.76 139.42,371.18 142.67,370.15 145.03,377.56 142.89,378.23 136.73,380.18 134.38,372.76" type="building"/>
   <poly color="red" fill="1" id="105046693" layer="-1.00" shape="201.50,542.18 205.45,540.55 211.22,538.14 210.49,536.39 206.45,526.67 203.42,528.16 201.74,524.50 195.37,527.28 201.50,542.18" type="building"/>
   <poly color="207,245,201" fill="1" id="105508918" layer="-2.00" shape="623.91,425.52 651.69,432.77 656.68,413.66 628.89,406.41 623.91,425.52" type="leisure"/>
   <poly color="79,230,125" fill="1" id="105508918#1" layer="-2.00" shape="623.91,425.52 651.69,432.77 656.68,413.66 628.89,406.41 623.91,425.52" type="sport"/>
   <poly color="red" fill="1" id="105509607" layer="-1.00" shape="635.27,524.78 637.67,526.79 640.31,529.00 638.95,530.62 645.06,535.72 649.09,530.93 644.72,527.29 645.54,525.94 638.67,520.59 635.27,524.78" type="building"/>
   <poly color="red" fill="1" id="105509610" layer="-1.00" shape="665.33,484.13 663.53,483.37 657.20,480.68 651.36,494.48 648.47,501.28 646.51,505.94 653.76,509.00 659.28,495.99 660.14,496.36 661.95,492.09 665.33,484.13" type="building"/>
   <poly color="red" fill="1" id="105509611" layer="-1.00" shape="630.35,542.60 633.34,546.32 635.70,544.38 637.00,545.99 641.61,542.54 634.68,533.43 633.66,534.27 632.64,534.86 629.47,530.86 624.47,534.88 630.35,542.60" type="building"/>
   <poly color="red" fill="1" id="106228207" layer="-1.00" shape="661.95,492.09 665.33,484.13 667.86,485.20 672.62,487.22 669.25,495.18 661.95,492.09" type="building"/>
   <poly color="red" fill="1" id="106248597" layer="-1.00" shape="694.95,473.78 702.93,480.60 711.66,470.38 703.68,463.57 699.58,468.36 694.95,473.78" type="building"/>
   <poly color="237,199,199" fill="1" id="106248598" layer="-1.00" shape="672.39,458.81 676.05,461.85 680.01,465.15 681.34,463.68 692.56,450.06 688.18,446.42 683.90,451.56 680.65,448.88 672.39,458.81" type="amenity"/>
   <poly color="red" fill="1" id="106248598#1" layer="-1.00" shape="672.39,458.81 676.05,461.85 680.01,465.15 681.34,463.68 692.56,450.06 688.18,446.42 683.90,451.56 680.65,448.88 672.39,458.81" type="building"/>
   <poly color="237,199,255" fill="1" id="106248598#2" layer="-1.00" shape="672.39,458.81 676.05,461.85 680.01,465.15 681.34,463.68 692.56,450.06 688.18,446.42 683.90,451.56 680.65,448.88 672.39,458.81" type="shop"/>
   <poly color="red" fill="1" id="106248600" layer="-1.00" shape="738.09,507.39 740.08,509.12 742.07,510.82 749.96,501.67 745.98,498.24 738.09,507.39" type="building"/>
   <poly color="237,199,255" fill="1" id="106248600#1" layer="-1.00" shape="738.09,507.39 740.08,509.12 742.07,510.82 749.96,501.67 745.98,498.24 738.09,507.39" type="shop"/>
   <poly color="red" fill="1" id="106248601" layer="-1.00" shape="710.39,484.20 715.47,488.44 720.01,492.24 728.37,482.23 723.56,478.21 727.07,474.01 723.11,470.69 719.86,474.58 719.01,473.88 710.39,484.20" type="building"/>
   <poly color="237,199,199" fill="1" id="106283416" layer="-1.00" shape="606.69,545.54 612.79,558.65 613.20,559.52 620.84,555.90 616.13,545.96 614.73,546.63 614.10,546.92 612.26,542.96 606.69,545.54" type="amenity"/>
   <poly color="red" fill="1" id="106283416#1" layer="-1.00" shape="606.69,545.54 612.79,558.65 613.20,559.52 620.84,555.90 616.13,545.96 614.73,546.63 614.10,546.92 612.26,542.96 606.69,545.54" type="building"/>
   <poly color="237,199,199" fill="1" id="106293339" layer="-1.00" shape="591.12,218.36 593.12,211.76 596.91,212.90 594.90,219.51 591.12,218.36" type="amenity"/>
   <poly color="red" fill="1" id="106295597" layer="-1.00" shape="376.75,266.69 378.74,272.06 400.84,263.89 398.85,258.51 376.75,266.69" type="building"/>
   <poly color="red" fill="1" id="106295601" layer="-1.00" shape="307.77,292.62 309.87,298.18 331.66,289.94 329.55,284.38 307.77,292.62" type="building"/>
   <poly color="red" fill="1" id="106295602" layer="-1.00" shape="410.58,254.18 412.39,259.20 417.68,257.30 434.17,251.34 432.36,246.32 410.58,254.18" type="building"/>
   <poly color="red" fill="1" id="106295605" layer="-1.00" shape="341.53,280.32 343.24,285.57 365.30,277.18 363.62,271.92 341.53,280.32" type="building"/>
   <poly color="red" fill="1" id="106492679" layer="-1.00" shape="558.51,572.87 554.68,574.43 551.51,566.67 550.83,566.94 550.15,567.22 549.55,565.74 544.20,568.22 548.40,577.08 551.35,575.62 553.52,580.90 560.60,578.00 558.51,572.87" type="building"/>
   <poly color="red" fill="1" id="106492686" layer="-1.00" shape="551.51,566.67 555.34,565.11 558.51,572.87 554.68,574.43 551.51,566.67" type="building"/>
   <poly color="red" fill="1" id="106492687" layer="-1.00" shape="579.85,566.67 576.44,568.00 574.13,562.05 577.54,560.74 579.85,566.67" type="building"/>
   <poly color="red" fill="1" id="106492688" layer="-1.00" shape="579.85,566.67 576.44,568.00 574.13,562.05 573.28,562.38 572.42,562.71 571.27,559.73 565.54,561.92 568.92,570.85 572.61,569.44 575.00,575.60 582.22,572.82 579.85,566.67" type="building"/>
   <poly color="red" fill="1" id="106492689" layer="-1.00" shape="579.85,566.67 583.48,565.26 581.18,559.33 577.54,560.74 579.85,566.67" type="building"/>
   <poly color="red" fill="1" id="106492690" layer="-1.00" shape="580.97,555.44 582.30,558.91 581.75,559.12 581.18,559.33 583.48,565.26 590.58,562.54 586.94,553.20 580.97,555.44" type="building"/>
   <poly color="red" fill="1" id="106613656" layer="-1.00" shape="519.47,581.67 524.88,578.61 529.86,587.43 524.37,590.39 521.24,584.79 519.47,581.67" type="building"/>
   <poly color="red" fill="1" id="106613661" layer="-1.00" shape="533.41,577.41 536.19,576.10 538.73,581.45 535.98,582.74 533.41,577.41" type="building"/>
   <poly color="red" fill="1" id="106613662" layer="-1.00" shape="536.19,576.10 538.73,581.45 541.25,580.26 538.72,574.91 536.19,576.10" type="building"/>
   <poly color="red" fill="1" id="106811055" layer="-1.00" shape="624.10,311.08 627.34,311.82 630.58,312.57 632.40,304.66 625.92,303.16 624.10,311.08" type="building"/>
   <poly color="red" fill="1" id="106818239" layer="-1.00" shape="769.24,707.87 765.61,700.35 770.23,698.13 774.86,695.90 786.46,699.21 789.03,704.52 781.29,708.24 780.60,706.83 777.51,708.32 776.66,706.57 773.40,708.15 772.51,706.30 769.24,707.87" type="building"/>
   <poly color="red" fill="1" id="107689221" layer="-1.00" shape="494.17,608.98 496.15,607.39 501.50,614.04 499.51,615.63 494.17,608.98" type="building"/>
   <poly color="red" fill="1" id="107689222" layer="-1.00" shape="516.39,587.74 518.54,586.26 521.84,591.07 519.69,592.53 516.39,587.74" type="building"/>
   <poly color="red" fill="1" id="107689223" layer="-1.00" shape="514.50,589.11 516.39,587.74 519.69,592.53 517.90,593.66 514.50,589.11" type="building"/>
   <poly color="red" fill="1" id="107689224" layer="-1.00" shape="505.57,595.65 512.98,590.15 514.50,589.11 517.90,593.66 519.69,592.53 522.03,595.85 519.02,598.09 518.41,597.28 516.01,599.07 515.01,597.73 509.93,601.49 505.57,595.65" type="building"/>
   <poly color="red" fill="1" id="107689225" layer="-1.00" shape="494.17,608.98 492.47,610.44 498.14,617.42 499.94,615.96 499.51,615.63 494.17,608.98" type="building"/>
   <poly color="red" fill="1" id="107689226" layer="-1.00" shape="484.21,623.15 479.36,617.54 485.16,612.68 486.39,611.82 486.45,608.85 489.40,609.04 490.11,608.51 492.47,610.44 498.14,617.42 499.25,618.83 493.27,623.71 489.06,619.03 484.21,623.15" type="building"/>
   <poly color="red" fill="1" id="108149807" layer="-1.00" shape="279.18,457.78 284.56,455.34 290.17,467.64 284.79,470.08 279.18,457.78" type="building"/>
   <poly color="red" fill="1" id="108149809" layer="-1.00" shape="291.74,452.73 297.11,450.30 302.72,462.60 297.35,465.03 291.74,452.73" type="building"/>
   <poly color="140,196,107" fill="1" id="108643521" layer="-4.00" shape="264.68,96.10 260.55,62.04 299.91,50.11 329.39,38.58 341.71,67.94 264.68,96.10" type="natural"/>
   <poly color="207,245,201" fill="1" id="109070725" layer="-2.00" shape="664.83,448.98 670.37,450.16 687.00,424.08 672.10,420.01 664.83,448.98" type="leisure"/>
   <poly color="79,230,125" fill="1" id="109070725#1" layer="-2.00" shape="664.83,448.98 670.37,450.16 687.00,424.08 672.10,420.01 664.83,448.98" type="sport"/>
   <poly color="194,194,130" fill="1" id="111707612" layer="-3.00" shape="498.27,301.16 500.95,302.30 504.97,285.00 516.43,283.99 515.35,288.32 524.02,290.32 518.07,311.15 531.09,314.64 540.04,320.15 531.73,348.05 523.38,350.73 500.95,344.16 489.99,350.68 486.00,358.43 481.95,357.62 498.27,301.16" type="landuse"/>
   <poly color="red" fill="1" id="118612971" layer="-1.00" shape="423.50,666.30 429.15,661.35 434.04,666.90 431.84,668.84 436.39,674.00 430.57,679.11 423.98,671.64 425.06,670.70 424.49,670.05 425.22,669.42 425.81,668.90 423.50,666.30" type="building"/>
   <poly color="red" fill="1" id="118612972" layer="-1.00" shape="448.60,644.60 455.15,639.06 459.52,644.19 461.82,646.88 463.79,649.18 461.60,651.05 460.29,649.52 457.69,651.73 458.54,652.73 452.29,658.02 447.02,651.84 450.24,649.12 451.52,648.02 448.60,644.60" type="building"/>
   <poly color="red" fill="1" id="118612974" layer="-1.00" shape="382.25,696.28 385.63,700.90 395.66,694.40 394.81,693.37 391.87,689.74 382.25,696.28" type="building"/>
   <poly color="red" fill="1" id="118612975" layer="-1.00" shape="417.58,683.28 414.74,685.47 416.53,687.66 411.86,691.49 404.72,682.90 410.33,678.36 411.37,679.52 412.39,678.58 413.00,677.93 417.58,683.28" type="building"/>
   <poly color="194,194,130" fill="1" id="118758943" layer="-3.00" shape="216.96,37.91 217.80,36.32 321.25,18.24 329.39,38.58 299.91,50.11 260.55,62.04 222.14,72.79 216.12,39.51 216.96,37.91" type="landuse"/>
   <poly color="red" fill="1" id="118923685" layer="-1.00" shape="615.38,281.66 621.88,283.49 626.08,269.14 619.73,266.98 615.38,281.66" type="building"/>
   <poly color="red" fill="1" id="119313380" layer="-1.00" shape="152.36,236.79 153.64,244.61 158.63,243.80 163.61,242.99 162.34,235.17 152.36,236.79" type="building"/>
   <poly color="red" fill="1" id="119313381" layer="-1.00" shape="142.15,245.66 139.67,246.05 136.07,246.51 135.09,239.57 134.67,236.55 140.74,235.69 142.15,245.66" type="building"/>
   <poly color="red" fill="1" id="119444556" layer="-1.00" shape="103.78,223.83 105.01,231.78 108.07,231.31 108.75,235.74 119.57,234.09 118.76,228.82 120.24,228.59 119.14,221.47 117.25,221.75 108.39,223.12 103.78,223.83" type="building"/>
   <poly color="red" fill="1" id="119444558" layer="-1.00" shape="111.71,254.70 122.42,253.14 121.36,245.90 110.66,247.46 111.71,254.70" type="building"/>
   <poly color="red" fill="1" id="119444561" layer="-1.00" shape="105.56,255.58 104.56,248.33 110.66,247.46 111.71,254.70 108.60,255.15 105.56,255.58" type="building"/>
   <poly color="red" fill="1" id="119444562" layer="-1.00" shape="97.90,256.63 96.41,245.80 104.07,244.76 104.56,248.33 105.56,255.58 101.73,256.11 97.90,256.63" type="building"/>
   <poly color="194,194,130" fill="0" id="123307845" layer="-3.00" shape="475.62,18.52 426.49,28.62" type="landuse"/>
   <poly color="red" fill="1" id="123616145" layer="-1.00" shape="417.78,673.82 420.01,671.94 424.63,677.35 422.40,679.23 417.78,673.82" type="building"/>
   <poly color="red" fill="1" id="125755826" layer="-1.00" shape="763.56,528.74 768.47,533.21 777.72,522.73 772.95,518.40 765.72,526.36 763.56,528.74" type="building"/>
   <poly color="red" fill="1" id="125755827" layer="-1.00" shape="701.60,458.76 705.81,462.48 709.62,458.16 705.41,454.45 701.60,458.76" type="building"/>
   <poly color="red" fill="1" id="125755828" layer="-1.00" shape="753.59,518.74 763.62,507.49 770.19,513.35 760.15,524.60 757.96,522.65 753.59,518.74" type="building"/>
   <poly color="red" fill="1" id="125755829" layer="-1.00" shape="780.12,542.88 788.44,533.37 796.09,540.06 787.94,549.74 784.07,546.35 780.12,542.88" type="building"/>
   <poly color="red" fill="1" id="125755833" layer="-1.00" shape="800.52,560.64" type="building"/>
   <poly color="red" fill="1" id="125767549" layer="-1.00" shape="591.42,794.84 599.09,807.39 606.84,802.67 599.18,790.13 591.42,794.84" type="building"/>
   <poly color="red" fill="1" id="126210594" layer="-1.00" shape="673.53,508.94 677.57,511.97 687.87,498.35 682.44,494.25 678.88,498.96 676.55,502.04 677.95,503.09 673.53,508.94" type="building"/>
   <poly color="red" fill="1" id="126210595" layer="-1.00" shape="752.16,560.25 759.80,566.46 762.36,563.33 766.24,558.59 758.60,552.38 752.16,560.25" type="building"/>
   <poly color="red" fill="1" id="126210596" layer="-1.00" shape="741.36,551.44 747.83,556.91 749.98,554.39 753.63,550.08 747.17,544.60 741.36,551.44" type="building"/>
   <poly color="red" fill="1" id="126210597" layer="-1.00" shape="780.40,586.98 787.03,592.59 787.92,591.54 792.68,585.93 793.49,584.97 789.16,581.31 786.87,579.38 780.40,586.98" type="building"/>
   <poly color="red" fill="1" id="126210599" layer="-1.00" shape="722.54,536.34 726.99,539.83 724.57,542.91 726.87,544.71 735.42,533.82 728.67,528.55 725.71,532.31 722.54,536.34" type="building"/>
   <poly color="red" fill="1" id="126210600" layer="-1.00" shape="790.20,597.06 798.79,604.53 802.27,591.88 797.98,588.16 796.77,589.53 791.11,596.02 790.20,597.06" type="building"/>
   <poly color="red" fill="1" id="126210602" layer="-1.00" shape="703.05,522.03 710.75,527.60 713.36,524.10 716.22,520.24 708.44,514.62 705.12,519.18 703.05,522.03" type="building"/>
   <poly color="red" fill="1" id="126210604" layer="-1.00" shape="726.87,544.71 721.94,551.97 726.27,555.21 733.04,546.21 736.09,548.49 739.46,544.01 743.00,539.33 735.42,533.82 726.87,544.71" type="building"/>
   <poly color="red" fill="1" id="126210605" layer="-1.00" shape="764.16,571.53 767.65,574.33 767.06,575.05 769.46,576.99 775.86,569.18 769.93,564.41 766.16,569.07 764.16,571.53" type="building"/>
   <poly color="red" fill="1" id="126488202" layer="-1.00" shape="442.85,655.43 445.09,653.53 450.34,659.69 448.12,661.58 442.85,655.43" type="building"/>
   <poly color="red" fill="1" id="126491275" layer="-1.00" shape="745.44,663.49 750.08,673.70 752.17,672.75 752.95,674.48 760.15,671.21 767.23,667.99 766.48,666.33 769.03,665.17 764.36,654.90 745.44,663.49" type="building"/>
   <poly color="red" fill="1" id="126491276" layer="-1.00" shape="760.11,636.25 769.20,644.13 770.28,642.71 772.37,644.54 779.64,639.11 776.39,636.18 777.28,634.79 767.67,627.33 766.93,628.06 761.43,634.66 760.11,636.25" type="building"/>
   <poly color="red" fill="1" id="126491277" layer="-1.00" shape="772.05,617.06 774.17,618.89 773.36,619.83 782.49,627.68 783.65,626.61 790.53,618.53 779.27,608.71 772.05,617.06" type="building"/>
   <poly color="red" fill="1" id="126491279" layer="-1.00" shape="749.91,624.14 752.26,626.25 749.88,628.78 753.94,632.62 756.15,630.32 761.43,634.66 766.93,628.06 764.37,625.68 765.54,624.44 756.73,616.54 749.91,624.14" type="building"/>
   <poly color="red" fill="1" id="126491280" layer="-1.00" shape="789.08,631.21 788.00,632.48 797.25,640.31 798.62,638.69 801.33,640.99 804.49,632.01 805.31,631.04 795.97,623.13 789.08,631.21" type="building"/>
   <poly color="red" fill="1" id="126491282" layer="-1.00" shape="771.89,647.85 777.48,658.87 779.00,658.09 780.37,660.65 788.73,656.33 787.38,653.44 788.58,652.77 783.53,642.05 781.68,642.96 779.64,639.11 772.37,644.54 773.50,646.91 771.89,647.85" type="building"/>
   <poly color="red" fill="1" id="128605932" layer="-1.00" shape="734.14,619.57 739.83,624.19 740.70,623.17 749.60,612.63 742.74,610.33 734.14,619.57" type="building"/>
   <poly color="red" fill="1" id="128605933" layer="-1.00" shape="741.51,652.50 746.27,656.73 751.00,651.41 746.24,647.18 741.51,652.50" type="building"/>
   <poly color="red" fill="1" id="128605934" layer="-1.00" shape="704.52,635.19 712.09,639.55 712.63,638.61 715.76,640.42 721.23,631.30 717.51,629.09 716.48,630.75 709.42,626.67 704.52,635.19" type="building"/>
   <poly color="red" fill="1" id="128605935" layer="-1.00" shape="730.00,650.72 737.32,657.22 740.32,653.85 741.51,652.50 746.24,647.18 738.93,640.68 730.00,650.72" type="building"/>
   <poly color="red" fill="1" id="128677320" layer="-1.00" shape="669.25,495.18 666.58,500.92 670.95,503.21 671.89,501.03 673.39,497.03 669.25,495.18" type="building"/>
   <poly color="red" fill="1" id="128677322" layer="-1.00" shape="674.06,495.24 677.29,496.86 675.25,502.38 671.89,501.03 673.39,497.03 674.06,495.24" type="building"/>
   <poly color="red" fill="1" id="138232438" layer="-1.00" shape="708.44,684.47 711.56,692.44 715.55,690.89 714.90,689.20 718.49,687.80 723.61,685.80 721.22,679.68 708.44,684.47" type="building"/>
   <poly color="red" fill="1" id="138232439" layer="-1.00" shape="705.22,648.39 698.98,657.17 705.13,661.09 706.57,658.99 711.69,662.60 716.37,655.70 705.22,648.39" type="building"/>
   <poly color="red" fill="1" id="138232440" layer="-1.00" shape="707.72,669.21 708.83,672.28 715.77,669.71 714.93,667.03 713.45,666.29 707.72,669.21" type="building"/>
   <poly color="red" fill="1" id="138232441" layer="-1.00" shape="682.72,613.07 680.14,621.36 681.29,621.71 680.04,625.71 688.93,628.49 692.77,616.21 682.72,613.07" type="building"/>
   <poly color="red" fill="1" id="138232442" layer="-1.00" shape="713.76,604.02 720.75,596.06 729.18,603.46 732.67,599.49 739.82,605.78 730.65,616.23 726.86,612.91 725.57,614.38 713.76,604.02" type="building"/>
   <poly color="red" fill="1" id="142166242" layer="-1.00" shape="18.26,458.93 22.09,469.78 22.27,470.10 26.68,468.61 31.08,467.11 28.23,459.61 27.01,456.04 18.26,458.93" type="building"/>
   <poly color="red" fill="1" id="142166243" layer="-1.00" shape="87.11,499.11 90.44,507.10 92.09,506.47 95.54,504.97 100.93,502.80 97.63,494.72 87.11,499.11" type="building"/>
   <poly color="red" fill="1" id="142166244" layer="-1.00" shape="93.11,514.53 93.98,516.47 94.31,517.19 93.28,517.67 94.51,520.33 95.56,519.85 96.20,521.24 95.09,521.75 95.27,522.32 106.46,517.25 104.45,512.92 106.89,511.80 105.05,507.82 104.32,508.16 98.02,511.02 95.60,512.10 96.10,513.20 93.11,514.53" type="building"/>
   <poly color="red" fill="1" id="142166245" layer="-1.00" shape="61.72,502.20 66.38,514.23 70.87,512.45 75.46,510.66 70.77,498.68 61.72,502.20" type="building"/>
   <poly color="red" fill="1" id="142166246" layer="-1.00" shape="174.03,554.15 178.72,564.96 189.79,560.04 188.40,556.90 185.07,549.12 174.03,554.15" type="building"/>
   <poly color="red" fill="1" id="142166247" layer="-1.00" shape="83.94,491.64 85.68,495.69 87.11,499.11 97.63,494.72 95.03,488.51 91.03,490.18 90.48,488.86 88.80,489.62 83.94,491.64" type="building"/>
   <poly color="red" fill="1" id="142166248" layer="-1.00" shape="128.50,455.45 127.63,455.78 130.94,463.50 132.46,462.71 137.90,460.57 143.17,458.36 140.00,450.66 128.50,455.45" type="building"/>
   <poly color="red" fill="1" id="142166249" layer="-1.00" shape="27.94,514.05 33.49,527.52 36.51,526.37 37.63,525.82 42.68,523.75 37.65,511.57 33.39,513.32 32.87,512.04 27.94,514.05" type="building"/>
   <poly color="red" fill="1" id="142166250" layer="-1.00" shape="25.62,392.28 29.00,401.60 24.86,403.10 27.22,409.60 28.51,409.19 33.99,407.10 40.14,404.92 38.09,399.28 36.41,394.65 34.40,389.10 25.62,392.28" type="building"/>
   <poly color="red" fill="1" id="142166251" layer="-1.00" shape="75.91,469.36 78.54,475.29 79.38,477.19 89.14,472.86 90.44,472.27 86.97,464.45 75.91,469.36" type="building"/>
   <poly color="red" fill="1" id="142166252" layer="-1.00" shape="69.94,455.36 72.48,461.01 73.55,463.37 83.48,458.90 81.44,454.39 80.05,455.02 78.47,451.53 69.94,455.36" type="building"/>
   <poly color="red" fill="1" id="142166253" layer="-1.00" shape="27.01,488.05 30.29,496.16 41.04,491.72 39.71,488.51 37.71,483.71 27.01,488.05" type="building"/>
   <poly color="red" fill="1" id="142166254" layer="-1.00" shape="37.67,369.29 42.44,383.04 52.71,379.47 50.05,371.81 47.94,365.73 37.67,369.29" type="building"/>
   <poly color="red" fill="1" id="142166255" layer="-1.00" shape="95.27,522.32 98.70,529.86 102.62,528.08 103.77,527.56 109.89,524.79 106.46,517.25 95.27,522.32" type="building"/>
   <poly color="red" fill="1" id="142166256" layer="-1.00" shape="17.06,378.24 20.91,388.44 32.05,384.24 30.35,379.70 30.16,378.83 28.21,374.04 17.06,378.24" type="building"/>
   <poly color="red" fill="1" id="142166258" layer="-1.00" shape="71.94,556.65 75.48,566.03 76.73,569.32 81.27,567.61 85.83,565.88 81.02,553.23 71.94,556.65" type="building"/>
   <poly color="red" fill="1" id="142166259" layer="-1.00" shape="61.96,432.86 62.74,434.76 65.45,441.37 75.23,437.36 71.73,428.85 61.96,432.86" type="building"/>
   <poly color="red" fill="1" id="142166260" layer="-1.00" shape="50.86,403.84 53.98,411.17 63.86,406.99 60.74,399.67 55.76,401.77 50.86,403.84" type="building"/>
   <poly color="red" fill="1" id="142166261" layer="-1.00" shape="70.08,525.02 75.13,538.61 81.34,536.40 87.59,533.98 84.64,526.05 82.53,520.39 70.08,525.02" type="building"/>
   <poly color="red" fill="1" id="142166262" layer="-1.00" shape="51.82,473.95 55.88,484.43 65.78,480.62 63.34,474.33 61.71,470.13 51.82,473.95" type="building"/>
   <poly color="red" fill="1" id="142166263" layer="-1.00" shape="103.90,544.17 106.29,549.84 108.08,554.09 116.04,550.72 120.69,548.80 121.50,550.75 124.70,549.35 125.27,547.58 123.59,544.17 121.74,543.57 119.05,544.90 116.51,538.87 103.90,544.17" type="building"/>
   <poly color="red" fill="1" id="142166264" layer="-1.00" shape="46.77,540.10 49.89,547.91 61.30,543.41 59.75,539.51 58.20,535.59 46.77,540.10" type="building"/>
   <poly color="red" fill="1" id="142166265" layer="-1.00" shape="33.47,453.66 38.11,464.96 42.14,463.32 46.30,461.62 41.68,450.36 33.47,453.66" type="building"/>
   <poly color="red" fill="1" id="142166266" layer="-1.00" shape="48.04,565.65 52.77,578.08 58.13,576.06 61.60,574.75 56.86,562.30 48.04,565.65" type="building"/>
   <poly color="red" fill="1" id="142166267" layer="-1.00" shape="100.28,535.17 102.26,540.01 103.90,544.17 116.51,538.87 112.87,529.91 106.00,532.94 100.28,535.17" type="building"/>
   <poly color="red" fill="1" id="142166268" layer="-1.00" shape="110.70,393.57 113.67,392.25 119.36,389.72 116.75,383.85 108.08,387.68 110.70,393.57" type="building"/>
   <poly color="red" fill="1" id="142166269" layer="-1.00" shape="123.30,405.97 116.06,409.12 117.29,411.92 118.61,414.92 121.09,413.83 125.83,411.77 123.30,405.97" type="building"/>
   <poly color="red" fill="1" id="142166270" layer="-1.00" shape="87.61,367.03 81.47,369.90 86.98,381.58 95.11,377.76 99.68,375.62 94.63,365.13 93.52,362.48 86.92,365.58 87.61,367.03" type="building"/>
   <poly color="red" fill="1" id="142166271" layer="-1.00" shape="131.02,427.45 132.22,430.17 134.80,436.00 128.11,438.96 124.32,430.40 131.02,427.45" type="building"/>
   <poly color="red" fill="1" id="142166272" layer="-1.00" shape="146.97,464.27 150.37,472.03 142.18,475.57 140.85,472.52 137.07,474.17 135.01,469.49 136.46,468.85 137.66,468.33 139.97,467.25 141.14,466.81 142.09,466.37 146.97,464.27" type="building"/>
   <poly color="red" fill="1" id="142166273" layer="-1.00" shape="155.35,511.76 158.92,519.74 160.39,519.08 168.26,515.54 164.66,507.58 159.53,509.89 155.35,511.76" type="building"/>
   <poly color="red" fill="1" id="142166274" layer="-1.00" shape="41.88,425.19 40.91,427.63 39.95,430.05 42.85,431.12 44.44,430.69 45.55,433.61 37.31,436.76 36.54,434.93 30.08,438.18 27.93,437.04 24.96,428.85 32.31,426.28 30.53,421.20 32.12,417.03 32.87,416.84 37.81,414.89 38.68,417.08 40.95,422.87 41.88,425.19" type="building"/>
   <poly color="red" fill="1" id="145001743" layer="-1.00" shape="585.52,40.66 583.96,30.80 594.36,29.17 595.92,39.04 590.39,39.90 585.52,40.66" type="building"/>
   <poly color="red" fill="1" id="146899890" layer="-1.00" shape="690.27,598.01 695.76,589.34 704.13,594.64 698.64,603.31 690.27,598.01" type="building"/>
   <poly color="red" fill="1" id="146899891" layer="-1.00" shape="658.47,622.49 659.65,613.94 663.53,614.39 664.17,611.12 667.78,611.40 666.41,623.41 658.47,622.49" type="building"/>
   <poly color="red" fill="1" id="146899896" layer="-1.00" shape="683.24,558.69 692.81,566.28 696.94,561.06 687.15,553.75 683.24,558.69" type="building"/>
   <poly color="red" fill="1" id="146899897" layer="-1.00" shape="673.49,588.92 682.01,591.22 683.25,586.65 674.77,584.21 673.49,588.92" type="building"/>
   <poly color="red" fill="1" id="146899898" layer="-1.00" shape="697.38,572.29 708.63,580.48 715.03,571.70 709.65,567.78 708.36,569.56 702.49,565.27 700.91,567.40 697.38,572.29" type="building"/>
   <poly color="red" fill="1" id="146899901" layer="-1.00" shape="664.47,648.88 665.71,644.93 666.76,641.57 677.61,644.97 675.22,652.25 672.33,651.35 664.47,648.88" type="building"/>
   <poly color="red" fill="1" id="147150836" layer="-1.00" shape="506.69,709.87 510.73,713.62 515.86,718.38 519.18,714.80 516.85,712.64 519.74,709.64 512.66,703.43 506.69,709.87" type="building"/>
   <poly color="red" fill="1" id="147150838" layer="-1.00" shape="519.78,658.49 524.93,663.89 526.27,662.43 529.50,666.05 534.90,661.27 528.97,654.82 526.18,657.33 523.60,654.80 519.78,658.49" type="building"/>