<?xml version="1.0" encoding="utf-8"?><!-- generated on 10/11/17 17:49:03 by SUMO netconvert Version 0.25.0
<?xml version="1.0" encoding="UTF-8"?>

<configuration xmlns:xsi="http://www.w3.org/2001/XMLSchema-instance" xsi:noNamespaceSchemaLocation="http://sumo.dlr.de/xsd/netconvertConfiguration.xsd">

    <input>
        <type-files value="osmNetconvert.typ.xml"/>
        <osm-files value="AC_Kornelim_rural_800.osm"/>
    </input>

    <output>
        <output-file value="AC_Kornelim_rural_800.net.xml"/>
    </output>

    <projection>
        <proj.utm value="true"/>
    </projection>

    <edge_removal>
        <remove-edges.by-type value="highway.track,highway.unsurfaced,highway.raceway,highway.bridleway,highway.path,highway.footway,highway.pedestrian,highway.cycleway,highway.step,highway.steps,highway.stairs,highway.bus_guideway,highway.ford,railway.rail,railway.tram,railway.light_rail,railway.subway,railway.preserved,railway.narrow_gauge,railway.monorail,railway.funicular"/>
    </edge_removal>

</configuration>
-->
<net version="0.25">
   <location convBoundary="0.00,0.00,804.52,786.26" netOffset="-300426.74,-5622985.70" origBoundary="6.172242,50.724327,6.183340,50.731583" projParameter="+proj=utm +zone=32 +ellps=WGS84 +datum=WGS84 +units=m +no_defs"/>
   <type allow="pedestrian" id="highway.bridleway" numLanes="1" oneway="1" priority="1" speed="2.78" width="2.00"/>
   <type allow="bus" id="highway.bus_guideway" numLanes="1" oneway="1" priority="1" speed="8.33"/>
   <type allow="bicycle" id="highway.cycleway" numLanes="1" oneway="0" priority="1" speed="5.56" width="1.00"/>
   <type allow="pedestrian" id="highway.footway" numLanes="1" oneway="1" priority="1" speed="8.33" width="2.00"/>
   <type allow="army" id="highway.ford" numLanes="1" oneway="0" priority="1" speed="2.78"/>
   <type disallow="tram rail_urban rail rail_electric ship" id="highway.living_street" numLanes="1" oneway="0" priority="3" speed="2.78"/>
   <type allow="private emergency authority army vip passenger hov taxi bus coach delivery truck trailer motorcycle evehicle custom1 custom2" id="highway.motorway" numLanes="2" oneway="1" priority="13" speed="44.44"/>
   <type allow="private emergency authority army vip passenger hov taxi bus coach delivery truck trailer motorcycle evehicle custom1 custom2" id="highway.motorway_link" numLanes="1" oneway="1" priority="12" speed="22.22"/>
   <type allow="bicycle pedestrian" id="highway.path" numLanes="1" oneway="1" priority="1" speed="2.78" width="2.00"/>
   <type allow="pedestrian" id="highway.pedestrian" numLanes="1" oneway="1" priority="1" speed="8.33" width="2.00"/>
   <type disallow="tram rail_urban rail rail_electric ship" id="highway.primary" numLanes="2" oneway="0" priority="9" speed="27.78"/>
   <type disallow="tram rail_urban rail rail_electric ship" id="highway.primary_link" numLanes="1" oneway="0" priority="8" speed="22.22"/>
   <type allow="vip" id="highway.raceway" numLanes="2" oneway="0" priority="14" speed="83.33"/>
   <type disallow="tram rail_urban rail rail_electric ship" id="highway.residential" numLanes="1" oneway="0" priority="4" speed="13.89"/>
   <type disallow="tram rail_urban rail rail_electric ship" id="highway.secondary" numLanes="2" oneway="0" priority="7" speed="27.78"/>
   <type disallow="tram rail_urban rail rail_electric ship" id="highway.secondary_link" numLanes="1" oneway="0" priority="6" speed="22.22"/>
   <type allow="delivery bicycle pedestrian" id="highway.service" numLanes="1" oneway="0" priority="2" speed="5.56"/>
   <type disallow="tram rail_urban rail rail_electric ship" id="highway.services" numLanes="1" oneway="0" priority="1" speed="8.33"/>
   <type allow="pedestrian" id="highway.stairs" numLanes="1" oneway="1" priority="1" speed="1.39" width="2.00"/>
   <type allow="pedestrian" id="highway.step" numLanes="1" oneway="1" priority="1" speed="1.39" width="2.00"/>
   <type allow="pedestrian" id="highway.steps" numLanes="1" oneway="1" priority="1" speed="1.39" width="2.00"/>
   <type disallow="tram rail_urban rail rail_electric ship" id="highway.tertiary" numLanes="1" oneway="0" priority="6" speed="22.22"/>
   <type disallow="tram rail_urban rail rail_electric ship" id="highway.tertiary_link" numLanes="1" oneway="0" priority="5" speed="22.22"/>
   <type disallow="tram rail_urban rail rail_electric ship" id="highway.track" numLanes="1" oneway="0" priority="1" speed="5.56"/>
   <type disallow="tram rail_urban rail rail_electric bicycle pedestrian ship" id="highway.trunk" numLanes="2" oneway="0" priority="11" speed="27.78"/>
   <type disallow="tram rail_urban rail rail_electric bicycle pedestrian ship" id="highway.trunk_link" numLanes="1" oneway="0" priority="10" speed="22.22"/>
   <type disallow="tram rail_urban rail rail_electric ship" id="highway.unclassified" numLanes="1" oneway="0" priority="5" speed="13.89"/>
   <type disallow="tram rail_urban rail rail_electric ship" id="highway.unsurfaced" numLanes="1" oneway="0" priority="1" speed="8.33"/>
   <type allow="rail_urban" id="railway.light_rail" numLanes="1" oneway="1" priority="15" speed="27.78"/>
   <type allow="rail" id="railway.preserved" numLanes="1" oneway="1" priority="15" speed="27.78"/>
   <type allow="rail rail_electric" id="railway.rail" numLanes="1" oneway="1" priority="15" speed="83.33"/>
   <type allow="rail_urban" id="railway.subway" numLanes="1" oneway="1" priority="15" speed="27.78"/>
   <type allow="tram" id="railway.tram" numLanes="1" oneway="1" priority="15" speed="13.89"/>
   <edge function="internal" id=":104625481_0">
      <lane disallow="tram rail_urban rail rail_electric ship" id=":104625481_0_0" index="0" length="0.10" shape="645.49,418.33 645.49,418.34" speed="11.11"/>
   </edge>
   <edge function="internal" id=":104625481_1">
      <lane disallow="tram rail_urban rail rail_electric ship" id=":104625481_1_0" index="0" length="2.41" shape="645.49,418.33 645.05,416.91 645.25,416.01" speed="8.33"/>
   </edge>
   <edge function="internal" id=":104625481_4">
      <lane id=":104625481_4_0" index="0" length="2.41" shape="645.25,416.01 646.09,415.63 647.57,415.77" speed="8.33"/>
   </edge>
   <edge function="internal" id=":104625481_2">
      <lane disallow="tram rail_urban rail rail_electric ship" id=":104625481_2_0" index="0" length="0.36" shape="647.27,415.56 647.57,415.77" speed="11.11"/>
   </edge>
   <edge function="internal" id=":104625481_3">
      <lane disallow="tram rail_urban rail rail_electric ship" id=":104625481_3_0" index="0" length="2.41" shape="647.27,415.56 647.87,416.93 647.77,417.84" speed="13.89"/>
   </edge>
   <edge function="internal" id=":104625481_5">
      <lane id=":104625481_5_0" index="0" length="2.41" shape="647.77,417.84 646.98,418.31 645.49,418.34" speed="13.89"/>
   </edge>
   <edge function="internal" id=":1445872394_0">
      <lane allow="delivery bicycle pedestrian" id=":1445872394_0_0" index="0" length="8.68" shape="721.39,408.34 720.08,408.69 718.71,409.83 717.26,411.77 715.73,414.50" speed="6.95"/>
   </edge>
   <edge function="internal" id=":1445872394_1">
      <lane disallow="tram rail_urban rail rail_electric ship" id=":1445872394_1_0" index="0" length="11.25" shape="721.39,408.34 718.23,408.34 715.79,408.59 713.36,409.04 710.25,409.67" speed="8.33"/>
   </edge>
   <edge function="internal" id=":1445872394_2">
      <lane disallow="tram rail_urban rail rail_electric ship" id=":1445872394_2_0" index="0" length="2.41" shape="721.39,408.34 720.18,407.47 719.80,406.63" speed="8.33"/>
   </edge>
   <edge function="internal" id=":1445872394_9">
      <lane id=":1445872394_9_0" index="0" length="2.41" shape="719.80,406.63 720.24,405.82 721.51,405.04" speed="8.33"/>
   </edge>
   <edge function="internal" id=":1445872394_3">
      <lane disallow="tram rail_urban rail rail_electric ship" id=":1445872394_3_0" index="0" length="11.98" shape="709.64,406.43 712.86,405.79 715.54,405.32 718.24,405.05 721.51,405.04" speed="8.33"/>
   </edge>
   <edge function="internal" id=":1445872394_4">
      <lane allow="delivery bicycle pedestrian" id=":1445872394_4_0" index="0" length="6.46" shape="709.64,406.43 714.21,406.14 715.89,406.97" speed="6.95"/>
   </edge>
   <edge function="internal" id=":1445872394_5">
      <lane disallow="tram rail_urban rail rail_electric ship" id=":1445872394_5_0" index="0" length="2.41" shape="709.64,406.43 711.01,407.01 711.57,407.74" speed="8.33"/>
   </edge>
   <edge function="internal" id=":1445872394_10">
      <lane id=":1445872394_10_0" index="0" length="8.37" shape="715.89,406.97 716.75,407.39 717.26,410.18 715.73,414.50" speed="6.95"/>
   </edge>
   <edge function="internal" id=":1445872394_11">
      <lane id=":1445872394_11_0" index="0" length="2.41" shape="711.57,407.74 711.31,408.63 710.25,409.67" speed="8.33"/>
   </edge>
   <edge function="internal" id=":1445872394_6">
      <lane disallow="tram rail_urban rail rail_electric ship" id=":1445872394_6_0" index="0" length="6.16" shape="712.78,413.02 713.42,411.23 713.20,410.07 712.15,409.55 710.25,409.67" speed="6.95"/>
   </edge>
   <edge function="internal" id=":1445872394_7">
      <lane disallow="tram rail_urban rail rail_electric ship" id=":1445872394_7_0" index="0" length="12.42" shape="712.78,413.02 714.85,409.47 717.00,406.95 719.22,405.47 721.51,405.04" speed="6.95"/>
   </edge>
   <edge function="internal" id=":1445872394_8">
      <lane allow="delivery bicycle pedestrian" id=":1445872394_8_0" index="0" length="4.82" shape="712.78,413.02 714.07,412.28 714.99,412.28 715.55,413.02 715.73,414.50" speed="5.56"/>
   </edge>
   <edge function="internal" id=":1445872400_0">
      <lane allow="delivery bicycle pedestrian" id=":1445872400_0_0" index="0" length="4.82" shape="706.19,433.59 704.90,434.33 703.97,434.33 703.42,433.59 703.24,432.12" speed="5.56"/>
   </edge>
   <edge function="internal" id=":1445872401_0">
      <lane allow="delivery bicycle pedestrian" id=":1445872401_0_0" index="0" length="4.82" shape="718.46,445.75 717.16,446.47 716.24,446.45 715.69,445.71 715.53,444.23" speed="5.56"/>
   </edge>
   <edge function="internal" id=":1447179979_0">
      <lane allow="delivery bicycle pedestrian" id=":1447179979_0_0" index="0" length="5.80" shape="319.48,425.06 318.28,424.54 317.02,424.58 315.70,425.16 314.31,426.29" speed="9.72"/>
   </edge>
   <edge function="internal" id=":1447179979_1">
      <lane disallow="tram rail_urban rail rail_electric ship" id=":1447179979_1_0" index="0" length="9.56" shape="319.48,425.06 311.70,419.51" speed="13.89"/>
   </edge>
   <edge function="internal" id=":1447179979_2">
      <lane disallow="tram rail_urban rail rail_electric ship" id=":1447179979_2_0" index="0" length="2.51" shape="319.48,425.06 318.92,423.68 319.03,422.77 319.12,422.71" speed="13.89"/>
   </edge>
   <edge function="internal" id=":1447179979_9">
      <lane id=":1447179979_9_0" index="0" length="2.31" shape="319.12,422.71 319.84,422.31 321.33,422.32" speed="13.89"/>
   </edge>
   <edge function="internal" id=":1447179979_3">
      <lane disallow="tram rail_urban rail rail_electric ship" id=":1447179979_3_0" index="0" length="9.46" shape="313.63,416.82 321.33,422.32" speed="13.89"/>
   </edge>
   <edge function="internal" id=":1447179979_4">
      <lane allow="delivery bicycle pedestrian" id=":1447179979_4_0" index="0" length="5.01" shape="313.63,416.82 315.77,419.14 316.39,420.89" speed="9.72"/>
   </edge>
   <edge function="internal" id=":1447179979_5">
      <lane disallow="tram rail_urban rail rail_electric ship" id=":1447179979_5_0" index="0" length="2.41" shape="313.63,416.82 314.15,418.22 314.01,419.13" speed="13.89"/>
   </edge>
   <edge function="internal" id=":1447179979_10">
      <lane id=":1447179979_10_0" index="0" length="6.09" shape="316.39,420.89 316.60,421.49 316.11,423.87 314.31,426.29" speed="9.72"/>
   </edge>
   <edge function="internal" id=":1447179979_11">
      <lane id=":1447179979_11_0" index="0" length="2.41" shape="314.01,419.13 313.19,419.56 311.70,419.51" speed="13.89"/>
   </edge>
   <edge function="internal" id=":1447179979_6">
      <lane disallow="tram rail_urban rail rail_electric ship" id=":1447179979_6_0" index="0" length="5.20" shape="311.99,423.95 312.84,422.81 313.08,421.69 312.69,420.59 311.70,419.51" speed="9.72"/>
   </edge>
   <edge function="internal" id=":1447179979_7">
      <lane disallow="tram rail_urban rail rail_electric ship" id=":1447179979_7_0" index="0" length="10.38" shape="311.99,423.95 314.36,422.08 316.70,421.18 319.03,421.26 321.33,422.32" speed="9.72"/>
   </edge>
   <edge function="internal" id=":1447179979_8">
      <lane allow="delivery bicycle pedestrian" id=":1447179979_8_0" index="0" length="4.82" shape="311.99,423.95 313.45,423.66 314.32,423.96 314.61,424.84 314.31,426.29" speed="5.56"/>
   </edge>
   <edge function="internal" id=":1447179985_0">
      <lane allow="delivery bicycle pedestrian" id=":1447179985_0_0" index="0" length="4.82" shape="272.48,467.74 271.02,468.02 270.15,467.73 269.86,466.85 270.16,465.39" speed="5.56"/>
   </edge>
   <edge function="internal" id=":150883570_0">
      <lane disallow="tram rail_urban rail rail_electric ship" id=":150883570_0_0" index="0" length="7.41" shape="78.14,605.46 76.14,605.65 74.51,605.17 73.25,604.04 72.36,602.24" speed="11.11"/>
   </edge>
   <edge function="internal" id=":150883570_1">
      <lane disallow="tram rail_urban rail rail_electric ship" id=":150883570_1_0" index="0" length="4.82" shape="78.14,605.46 76.75,604.95 76.16,604.24 76.37,603.34 77.38,602.25" speed="8.33"/>
   </edge>
   <edge function="internal" id=":150883570_2">
      <lane disallow="tram rail_urban rail rail_electric ship" id=":150883570_2_0" index="0" length="2.42" shape="75.49,601.20 75.78,601.79 76.20,602.16 76.73,602.31 77.38,602.25" speed="11.11"/>
   </edge>
   <edge function="internal" id=":150883570_3">
      <lane disallow="tram rail_urban rail rail_electric ship" id=":150883570_3_0" index="0" length="4.82" shape="75.49,601.20 75.10,602.63 74.45,603.29 73.53,603.15 72.36,602.24" speed="13.89"/>
   </edge>
   <edge function="internal" id=":150883575_0">
      <lane disallow="tram rail_urban rail rail_electric ship" id=":150883575_0_0" index="0" length="9.56" shape="190.75,582.35 181.39,584.36" speed="8.33"/>
   </edge>
   <edge function="internal" id=":150883575_1">
      <lane allow="delivery bicycle pedestrian" id=":150883575_1_0" index="0" length="4.90" shape="190.75,582.35 188.18,582.47 185.99,581.66" speed="6.95"/>
   </edge>
   <edge function="internal" id=":150883575_2">
      <lane disallow="tram rail_urban rail rail_electric ship" id=":150883575_2_0" index="0" length="2.41" shape="190.75,582.35 189.36,581.80 188.79,581.08" speed="8.33"/>
   </edge>
   <edge function="internal" id=":150883575_9">
      <lane id=":150883575_9_0" index="0" length="5.52" shape="185.99,581.66 184.18,579.93 182.76,577.27" speed="6.95"/>
   </edge>
   <edge function="internal" id=":150883575_10">
      <lane id=":150883575_10_0" index="0" length="2.41" shape="188.79,581.08 189.02,580.19 190.06,579.12" speed="8.33"/>
   </edge>
   <edge function="internal" id=":150883575_3">
      <lane disallow="tram rail_urban rail rail_electric ship" id=":150883575_3_0" index="0" length="5.74" shape="185.83,576.06 186.64,577.62 187.61,578.65 188.75,579.15 190.06,579.12" speed="6.95"/>
   </edge>
   <edge function="internal" id=":150883575_4">
      <lane disallow="tram rail_urban rail rail_electric ship" id=":150883575_4_0" index="0" length="11.18" shape="185.83,576.06 186.55,579.11 186.06,581.51 184.34,583.26 181.39,584.36" speed="6.95"/>
   </edge>
   <edge function="internal" id=":150883575_5">
      <lane allow="delivery bicycle pedestrian" id=":150883575_5_0" index="0" length="4.82" shape="185.83,576.06 185.52,577.51 184.90,578.20 183.98,578.12 182.76,577.27" speed="5.56"/>
   </edge>
   <edge function="internal" id=":150883575_6">
      <lane allow="delivery bicycle pedestrian" id=":150883575_6_0" index="0" length="5.21" shape="180.70,581.13 182.06,580.62 182.87,579.81 183.10,578.69 182.76,577.27" speed="6.95"/>
   </edge>
   <edge function="internal" id=":150883575_7">
      <lane disallow="tram rail_urban rail rail_electric ship" id=":150883575_7_0" index="0" length="9.58" shape="180.70,581.13 190.06,579.12" speed="8.33"/>
   </edge>
   <edge function="internal" id=":150883575_8">
      <lane disallow="tram rail_urban rail rail_electric ship" id=":150883575_8_0" index="0" length="2.41" shape="180.70,581.13 182.08,581.67 182.66,582.39" speed="8.33"/>
   </edge>
   <edge function="internal" id=":150883575_11">
      <lane id=":150883575_11_0" index="0" length="2.41" shape="182.66,582.39 182.43,583.29 181.39,584.36" speed="8.33"/>
   </edge>
   <edge function="internal" id=":150885711_0">
      <lane disallow="tram rail_urban rail rail_electric ship" id=":150885711_0_0" index="0" length="7.82" shape="58.54,731.02 56.50,731.66 54.73,731.50 53.25,730.54 52.03,728.78" speed="15.28"/>
   </edge>
   <edge function="internal" id=":150885711_1">
      <lane disallow="tram rail_urban rail rail_electric ship" id=":150885711_1_0" index="0" length="4.82" shape="58.54,731.02 57.07,730.81 56.34,730.24 56.35,729.32 57.11,728.04" speed="22.22"/>
   </edge>
   <edge function="internal" id=":150885711_2">
      <lane disallow="tram rail_urban rail rail_electric ship" id=":150885711_2_0" index="0" length="2.55" shape="54.99,727.31 55.38,727.89 55.87,728.20 56.44,728.25 57.11,728.04" speed="15.28"/>
   </edge>
   <edge function="internal" id=":150885711_3">
      <lane disallow="tram rail_urban rail rail_electric ship" id=":150885711_3_0" index="0" length="4.82" shape="54.99,727.31 54.80,728.79 54.24,729.52 53.32,729.52 52.03,728.78" speed="8.33"/>
   </edge>
   <edge function="internal" id=":150885714_0">
      <lane disallow="tram rail_urban rail rail_electric ship" id=":150885714_0_0" index="0" length="4.82" shape="21.56,667.56 21.75,666.08 22.31,665.35 23.23,665.35 24.52,666.09" speed="8.33"/>
   </edge>
   <edge function="internal" id=":150885822_0">
      <lane disallow="tram rail_urban rail rail_electric ship" id=":150885822_0_0" index="0" length="4.82" shape="56.27,443.60 55.50,442.33 55.47,441.41 56.19,440.83 57.66,440.60" speed="13.89"/>
   </edge>
   <edge function="internal" id=":150885828_0">
      <lane disallow="tram rail_urban rail rail_electric ship" id=":150885828_0_0" index="0" length="7.59" shape="69.30,444.47 65.29,450.91" speed="13.89"/>
   </edge>
   <edge function="internal" id=":150885828_1">
      <lane disallow="tram rail_urban rail rail_electric ship" id=":150885828_1_0" index="0" length="3.58" shape="69.30,444.47 67.46,445.87 66.26,446.26" speed="13.89"/>
   </edge>
   <edge function="internal" id=":150885828_2">
      <lane disallow="tram rail_urban rail rail_electric ship" id=":150885828_2_0" index="0" length="2.06" shape="69.30,444.47 67.85,444.78 67.30,444.60" speed="13.89"/>
   </edge>
   <edge function="internal" id=":150885828_9">
      <lane id=":150885828_9_0" index="0" length="5.83" shape="66.26,446.26 65.40,446.53 63.12,446.45 60.62,445.61" speed="13.89"/>
   </edge>
   <edge function="internal" id=":150885828_10">
      <lane id=":150885828_10_0" index="0" length="2.75" shape="67.30,444.60 66.97,444.50 66.67,443.63 66.94,442.17" speed="13.89"/>
   </edge>
   <edge function="internal" id=":150885828_3">
      <lane disallow="tram rail_urban rail rail_electric ship" id=":150885828_3_0" index="0" length="5.31" shape="62.00,442.62 63.47,443.13 64.79,443.22 65.94,442.90 66.94,442.17" speed="13.89"/>
   </edge>
   <edge function="internal" id=":150885828_4">
      <lane disallow="tram rail_urban rail rail_electric ship" id=":150885828_4_0" index="0" length="10.06" shape="62.00,442.62 64.30,444.10 65.62,445.98 65.95,448.25 65.29,450.91" speed="13.89"/>
   </edge>
   <edge function="internal" id=":150885828_5">
      <lane disallow="tram rail_urban rail rail_electric ship" id=":150885828_5_0" index="0" length="4.82" shape="62.00,442.62 62.78,443.88 62.81,444.81 62.09,445.38 60.62,445.61" speed="13.89"/>
   </edge>
   <edge function="internal" id=":150885828_6">
      <lane disallow="tram rail_urban rail rail_electric ship" id=":150885828_6_0" index="0" length="4.94" shape="62.23,449.68 62.55,448.38 62.39,447.26 61.74,446.34 60.62,445.61" speed="13.89"/>
   </edge>
   <edge function="internal" id=":150885828_7">
      <lane disallow="tram rail_urban rail rail_electric ship" id=":150885828_7_0" index="0" length="8.87" shape="62.23,449.68 66.94,442.17" speed="13.89"/>
   </edge>
   <edge function="internal" id=":150885828_8">
      <lane disallow="tram rail_urban rail rail_electric ship" id=":150885828_8_0" index="0" length="2.74" shape="62.23,449.68 63.46,448.84 64.38,448.76 64.59,449.01" speed="13.89"/>
   </edge>
   <edge function="internal" id=":150885828_11">
      <lane id=":150885828_11_0" index="0" length="2.08" shape="64.59,449.01 64.99,449.45 65.29,450.91" speed="13.89"/>
   </edge>
   <edge function="internal" id=":150885845_0">
      <lane disallow="tram rail_urban rail rail_electric ship" id=":150885845_0_0" index="0" length="1.93" shape="46.66,524.63 46.34,522.72" speed="13.89"/>
   </edge>
   <edge function="internal" id=":150885845_1">
      <lane disallow="tram rail_urban rail rail_electric ship" id=":150885845_1_0" index="0" length="2.41" shape="46.66,524.63 46.99,523.18 47.62,522.50" speed="13.89"/>
   </edge>
   <edge function="internal" id=":150885845_4">
      <lane id=":150885845_4_0" index="0" length="2.41" shape="47.62,522.50 48.54,522.59 49.75,523.45" speed="13.89"/>
   </edge>
   <edge function="internal" id=":150885845_2">
      <lane disallow="tram rail_urban rail rail_electric ship" id=":150885845_2_0" index="0" length="0.63" shape="49.64,522.83 49.75,523.45" speed="13.89"/>
   </edge>
   <edge function="internal" id=":150885845_3">
      <lane disallow="tram rail_urban rail rail_electric ship" id=":150885845_3_0" index="0" length="2.09" shape="49.64,522.83 48.78,524.04 48.23,524.29" speed="13.89"/>
   </edge>
   <edge function="internal" id=":150885845_5">
      <lane id=":150885845_5_0" index="0" length="2.73" shape="48.23,524.29 47.94,524.42 47.13,523.98 46.34,522.72" speed="13.89"/>
   </edge>
   <edge function="internal" id=":150885884_0">
      <lane disallow="tram rail_urban rail rail_electric ship" id=":150885884_0_0" index="0" length="10.19" shape="59.57,566.15 58.48,563.35 57.79,561.37 57.22,559.36 56.51,556.44" speed="13.89"/>
   </edge>
   <edge function="internal" id=":150885884_1">
      <lane disallow="tram rail_urban rail rail_electric ship" id=":150885884_1_0" index="0" length="5.78" shape="59.57,566.15 58.89,563.24 59.33,560.89 59.59,560.59" speed="13.89"/>
   </edge>
   <edge function="internal" id=":150885884_2">
      <lane disallow="tram rail_urban rail rail_electric ship" id=":150885884_2_0" index="0" length="2.58" shape="59.57,566.15 59.89,564.69 60.50,564.01 60.67,564.02" speed="13.89"/>
   </edge>
   <edge function="internal" id=":150885884_9">
      <lane id=":150885884_9_0" index="0" length="4.99" shape="59.59,560.59 60.91,559.08 63.62,557.83" speed="13.89"/>
   </edge>
   <edge function="internal" id=":150885884_10">
      <lane id=":150885884_10_0" index="0" length="2.24" shape="60.67,564.02 61.42,564.09 62.64,564.94" speed="13.89"/>
   </edge>
   <edge function="internal" id=":150885884_3">
      <lane disallow="tram rail_urban rail rail_electric ship" id=":150885884_3_0" index="0" length="5.11" shape="64.56,561.00 63.28,561.59 62.53,562.44 62.32,563.56 62.64,564.94" speed="13.89"/>
   </edge>
   <edge function="internal" id=":150885884_4">
      <lane disallow="tram rail_urban rail rail_electric ship" id=":150885884_4_0" index="0" length="10.69" shape="64.56,561.00 61.62,561.44 59.30,560.82 57.59,559.16 56.51,556.44" speed="13.89"/>
   </edge>
   <edge function="internal" id=":150885884_5">
      <lane disallow="tram rail_urban rail rail_electric ship" id=":150885884_5_0" index="0" length="4.82" shape="64.56,561.00 63.14,560.56 62.51,559.89 62.67,558.98 63.62,557.83" speed="13.89"/>
   </edge>
   <edge function="internal" id=":150885884_6">
      <lane disallow="tram rail_urban rail rail_electric ship" id=":150885884_6_0" index="0" length="5.16" shape="59.72,555.67 60.24,556.97 61.06,557.76 62.19,558.05 63.62,557.83" speed="13.89"/>
   </edge>
   <edge function="internal" id=":150885884_7">
      <lane disallow="tram rail_urban rail rail_electric ship" id=":150885884_7_0" index="0" length="9.72" shape="59.72,555.67 62.64,564.94" speed="13.89"/>
   </edge>
   <edge function="internal" id=":150885884_8">
      <lane disallow="tram rail_urban rail rail_electric ship" id=":150885884_8_0" index="0" length="2.41" shape="59.72,555.67 59.20,557.07 58.50,557.66" speed="13.89"/>
   </edge>
   <edge function="internal" id=":150885884_11">
      <lane id=":150885884_11_0" index="0" length="2.41" shape="58.50,557.66 57.60,557.45 56.51,556.44" speed="13.89"/>
   </edge>
   <edge function="internal" id=":150885927_0">
      <lane disallow="tram rail_urban rail rail_electric ship" id=":150885927_0_0" index="0" length="9.58" shape="128.04,395.29 120.20,400.80" speed="13.89"/>
   </edge>
   <edge function="internal" id=":150885927_1">
      <lane disallow="tram rail_urban rail rail_electric ship" id=":150885927_1_0" index="0" length="4.84" shape="128.04,395.29 125.77,396.35 123.44,396.45" speed="13.89"/>
   </edge>
   <edge function="internal" id=":150885927_2">
      <lane disallow="tram rail_urban rail rail_electric ship" id=":150885927_2_0" index="0" length="2.41" shape="128.04,395.29 126.55,395.32 125.74,394.87" speed="13.89"/>
   </edge>
   <edge function="internal" id=":150885927_9">
      <lane id=":150885927_9_0" index="0" length="5.63" shape="123.44,396.45 121.04,395.58 118.57,393.75" speed="13.89"/>
   </edge>
   <edge function="internal" id=":150885927_10">
      <lane id=":150885927_10_0" index="0" length="2.41" shape="125.74,394.87 125.61,393.96 126.16,392.58" speed="13.89"/>
   </edge>
   <edge function="internal" id=":150885927_3">
      <lane disallow="tram rail_urban rail rail_electric ship" id=":150885927_3_0" index="0" length="5.96" shape="120.82,391.33 122.30,392.47 123.68,393.06 124.97,393.09 126.16,392.58" speed="13.89"/>
   </edge>
   <edge function="internal" id=":150885927_4">
      <lane disallow="tram rail_urban rail rail_electric ship" id=":150885927_4_0" index="0" length="11.42" shape="120.82,391.33 122.84,393.84 123.42,396.25 122.54,398.58 120.20,400.80" speed="13.89"/>
   </edge>
   <edge function="internal" id=":150885927_5">
      <lane disallow="tram rail_urban rail rail_electric ship" id=":150885927_5_0" index="0" length="4.82" shape="120.82,391.33 121.16,392.77 120.90,393.66 120.04,393.98 118.57,393.75" speed="13.89"/>
   </edge>
   <edge function="internal" id=":150885927_6">
      <lane disallow="tram rail_urban rail rail_electric ship" id=":150885927_6_0" index="0" length="5.26" shape="118.29,398.11 119.36,397.09 119.77,396.02 119.51,394.90 118.57,393.75" speed="13.89"/>
   </edge>
   <edge function="internal" id=":150885927_7">
      <lane disallow="tram rail_urban rail rail_electric ship" id=":150885927_7_0" index="0" length="9.62" shape="118.29,398.11 126.16,392.58" speed="13.89"/>
   </edge>
   <edge function="internal" id=":150885927_8">
      <lane disallow="tram rail_urban rail rail_electric ship" id=":150885927_8_0" index="0" length="2.41" shape="118.29,398.11 119.77,398.07 120.59,398.50" speed="13.89"/>
   </edge>
   <edge function="internal" id=":150885927_11">
      <lane id=":150885927_11_0" index="0" length="2.41" shape="120.59,398.50 120.73,399.41 120.20,400.80" speed="13.89"/>
   </edge>
   <edge function="internal" id=":150885971_0">
      <lane disallow="tram rail_urban rail rail_electric ship" id=":150885971_0_0" index="0" length="4.82" shape="59.14,338.54 58.79,337.09 59.05,336.21 59.92,335.89 61.38,336.12" speed="13.89"/>
   </edge>
   <edge function="internal" id=":150885973_0">
      <lane disallow="tram rail_urban rail rail_electric ship" id=":150885973_0_0" index="0" length="6.59" shape="224.32,518.13 223.65,517.02 222.47,516.25 220.80,515.82 218.64,515.74" speed="9.73"/>
   </edge>
   <edge function="internal" id=":150885973_1">
      <lane allow="delivery bicycle pedestrian" id=":150885973_1_0" index="0" length="9.92" shape="224.32,518.13 220.91,508.81" speed="5.56"/>
   </edge>
   <edge function="internal" id=":150885973_2">
      <lane allow="delivery bicycle pedestrian" id=":150885973_2_0" index="0" length="4.82" shape="224.32,518.13 224.71,516.69 225.37,516.04 226.28,516.17 227.45,517.09" speed="5.56"/>
   </edge>
   <edge function="internal" id=":150885973_3">
      <lane allow="delivery bicycle pedestrian" id=":150885973_3_0" index="0" length="10.09" shape="223.99,507.61 225.07,510.39 225.81,512.32 226.50,514.26 227.45,517.09" speed="5.56"/>
   </edge>
   <edge function="internal" id=":150885973_4">
      <lane disallow="tram rail_urban rail rail_electric ship" id=":150885973_4_0" index="0" length="12.22" shape="223.99,507.61 224.79,511.06 224.17,513.56 222.12,515.12 218.64,515.74" speed="9.73"/>
   </edge>
   <edge function="internal" id=":150885973_5">
      <lane allow="delivery bicycle pedestrian" id=":150885973_5_0" index="0" length="4.82" shape="223.99,507.61 223.67,509.07 223.05,509.75 222.13,509.66 220.91,508.81" speed="5.56"/>
   </edge>
   <edge function="internal" id=":150885973_6">
      <lane allow="delivery bicycle pedestrian" id=":150885973_6_0" index="0" length="5.46" shape="218.52,512.44 220.07,512.16 220.99,511.46 221.27,510.35 220.91,508.81" speed="9.73"/>
   </edge>
   <edge function="internal" id=":150885973_7">
      <lane allow="delivery bicycle pedestrian" id=":150885973_7_0" index="0" length="10.85" shape="218.52,512.44 221.82,512.63 224.40,513.47 226.28,514.96 227.45,517.09" speed="9.73"/>
   </edge>
   <edge function="internal" id=":150885973_8">