<?xml version="1.0" encoding="utf-8"?><!-- generated on 10/11/17 17:49:09 by SUMO polyconvert Version 0.25.0
<?xml version="1.0" encoding="UTF-8"?>

<configuration xmlns:xsi="http://www.w3.org/2001/XMLSchema-instance" xsi:noNamespaceSchemaLocation="http://sumo.dlr.de/xsd/polyconvertConfiguration.xsd">

    <input>
        <net-file value="AC_Kornelim_rural_800.net.xml"/>
        <osm-files value="AC_Kornelim_rural_800.osm"/>
        <type-file value="osmPolyconvert.typ.xml"/>
    </input>

    <output>
        <output-file value="AC_Kornelim_rural_800.poly.xml"/>
    </output>

    <projection>
        <proj.utm value="true"/>
    </projection>

    <processing>
        <poi-layer-offset value="5"/>
    </processing>

</configuration>
-->
<additional>
   <location convBoundary="-2.61,-30.41,804.52,802.23" netOffset="-300426.74,-5622985.70" origBoundary="6.172203,50.724307,6.183397,50.731599" projParameter="+proj=utm +zone=32 +ellps=WGS84 +datum=WGS84 +units=m +no_defs"/>
   <poly color="red" fill="1" id="115783253" layer="-1.00" shape="287.22,378.63 291.38,373.03 294.73,368.53 284.36,360.86 276.85,370.97 285.50,377.37 287.22,378.63" type="building"/>
   <poly color="red" fill="1" id="115783256" layer="-1.00" shape="153.59,278.86 160.39,269.72 151.58,263.21 144.78,272.35 153.59,278.86" type="building"/>
   <poly color="red" fill="1" id="115783259" layer="-1.00" shape="297.64,377.66 301.50,380.52 303.15,381.72 304.94,379.32 308.31,381.80 314.08,374.05 305.21,367.48 297.64,377.66" type="building"/>
   <poly color="red" fill="1" id="115783262" layer="-1.00" shape="416.96,335.64 412.93,340.94 421.87,347.72 425.90,342.42 416.96,335.64" type="building"/>
   <poly color="red" fill="1" id="115783268" layer="-1.00" shape="110.91,141.63 114.99,135.78 107.88,130.84 103.80,136.70 110.91,141.63" type="building"/>
   <poly color="red" fill="1" id="115783269" layer="-1.00" shape="389.64,320.15 386.30,325.04 396.65,332.06 399.99,327.17 389.64,320.15" type="building"/>
   <poly color="red" fill="1" id="115783271" layer="-1.00" shape="316.40,409.51 321.76,413.72 328.87,404.76 323.51,400.54 316.40,409.51" type="building"/>
   <poly color="red" fill="1" id="115783273" layer="-1.00" shape="523.23,368.56 533.30,370.47 535.03,361.41 524.96,359.50 523.23,368.56" type="building"/>
   <poly color="red" fill="1" id="115783278" layer="-1.00" shape="117.11,113.79 121.32,118.96 131.04,111.10 126.83,105.92 117.11,113.79" type="building"/>
   <poly color="red" fill="1" id="115783279" layer="-1.00" shape="535.71,149.38 537.22,146.17 532.03,143.73 530.51,146.95 522.06,143.36 523.32,140.99 525.91,142.24 530.69,132.37 542.13,138.21 547.04,128.65 535.37,122.71 535.64,122.15 524.99,117.02 531.12,105.69 524.33,102.04 517.93,113.89 523.66,116.96 514.16,136.57 514.80,136.88 510.39,145.20 518.76,149.60 527.51,153.31 527.31,153.72 532.51,156.16 532.55,156.07 540.66,159.95 543.87,153.28 535.71,149.38" type="building"/>
   <poly color="red" fill="1" id="115783282" layer="-1.00" shape="249.10,165.08 257.11,158.64 249.60,149.34 241.58,155.78 249.10,165.08" type="building"/>
   <poly color="red" fill="1" id="115783285" layer="-1.00" shape="295.75,131.49 304.96,124.33 298.10,115.57 288.90,122.74 295.75,131.49" type="building"/>
   <poly color="red" fill="1" id="115783286" layer="-1.00" shape="463.85,299.43 470.23,290.98 463.33,285.78 456.95,294.24 463.85,299.43" type="building"/>
   <poly color="red" fill="1" id="115783287" layer="-1.00" shape="255.00,87.28 258.80,92.01 268.34,84.38 264.55,79.64 255.00,87.28" type="building"/>
   <poly color="red" fill="1" id="115783288" layer="-1.00" shape="275.06,150.01 283.78,142.98 277.08,134.69 276.02,133.38 267.30,140.41 275.06,150.01" type="building"/>
   <poly color="red" fill="1" id="115783290" layer="-1.00" shape="434.34,278.82 440.04,270.17 431.44,264.53 425.74,273.18 434.34,278.82" type="building"/>
   <poly color="red" fill="1" id="115783294" layer="-1.00" shape="254.63,343.60 267.39,354.73 275.96,345.71 269.11,339.23 266.63,341.36 260.89,336.03 254.63,343.60" type="building"/>
   <poly color="red" fill="1" id="115783295" layer="-1.00" shape="107.63,148.41 103.84,153.83 113.46,160.50 117.24,155.08 107.63,148.41" type="building"/>
   <poly color="red" fill="1" id="115783296" layer="-1.00" shape="343.55,390.42 348.59,383.78 339.48,376.98 334.43,383.53 343.55,390.42" type="building"/>
   <poly color="red" fill="1" id="115783301" layer="-1.00" shape="288.51,384.11 294.84,375.59 291.38,373.03 287.22,378.63 285.50,377.37 283.34,380.29 288.51,384.11" type="building"/>
   <poly color="red" fill="1" id="115783303" layer="-1.00" shape="166.26,273.85 165.86,273.51 159.07,281.29 167.38,288.50 174.17,280.70 174.06,280.61 178.65,275.86 171.23,268.71 166.26,273.85" type="building"/>
   <poly color="red" fill="1" id="115783305" layer="-1.00" shape="272.22,224.90 264.68,215.28 260.03,218.90 263.03,222.73 267.57,228.52 272.22,224.90" type="building"/>
   <poly color="red" fill="1" id="115783307" layer="-1.00" shape="436.96,286.50 445.56,291.91 453.62,279.19 445.03,273.77 436.96,286.50" type="building"/>
   <poly color="red" fill="1" id="115783308" layer="-1.00" shape="340.45,254.68 336.75,259.69 346.48,266.82 350.17,261.81 340.45,254.68" type="building"/>
   <poly color="red" fill="1" id="115783309" layer="-1.00" shape="362.74,253.95 367.00,248.18 356.94,240.79 352.68,246.58 359.17,251.34 362.74,253.95" type="building"/>
   <poly color="red" fill="1" id="115783310" layer="-1.00" shape="187.72,170.03 196.72,162.96 193.24,158.56 188.42,162.35 184.25,165.63 187.72,170.03" type="building"/>
   <poly color="red" fill="1" id="115783311" layer="-1.00" shape="404.63,286.79 400.95,292.17 401.97,292.87 410.87,298.91 414.55,293.54 404.63,286.79" type="building"/>
   <poly color="red" fill="1" id="115783312" layer="-1.00" shape="162.05,111.73 171.33,104.10 162.65,93.60 153.37,101.23 162.05,111.73" type="building"/>
   <poly color="red" fill="1" id="115783313" layer="-1.00" shape="170.54,145.93 166.86,141.26 157.11,148.91 160.79,153.57 170.54,145.93" type="building"/>
   <poly color="red" fill="1" id="115783317" layer="-1.00" shape="189.55,120.83 208.29,106.12 204.67,101.53 185.92,116.24 189.55,120.83" type="building"/>
   <poly color="red" fill="1" id="115783318" layer="-1.00" shape="362.93,301.15 359.49,306.18 369.03,312.65 372.47,307.62 362.93,301.15" type="building"/>
   <poly color="red" fill="1" id="115783319" layer="-1.00" shape="217.75,144.55 222.01,149.94 231.66,142.36 227.41,136.96 217.75,144.55" type="building"/>
   <poly color="red" fill="1" id="115783321" layer="-1.00" shape="220.88,105.58 225.16,110.76 226.81,109.41 233.38,104.00 229.10,98.82 220.88,105.58" type="building"/>
   <poly color="red" fill="1" id="115783325" layer="-1.00" shape="333.05,264.70 329.35,269.71 334.02,273.13 339.09,276.84 342.78,271.84 333.05,264.70" type="building"/>
   <poly color="red" fill="1" id="115783326" layer="-1.00" shape="243.24,129.29 252.29,121.85 247.59,116.16 246.68,116.91 238.53,123.60 243.24,129.29" type="building"/>
   <poly color="red" fill="1" id="115783328" layer="-1.00" shape="238.07,328.31 246.83,317.94 240.04,312.24 231.29,322.60 238.07,328.31" type="building"/>
   <poly color="red" fill="1" id="115783330" layer="-1.00" shape="526.99,217.08 531.03,210.85 524.40,206.57 520.35,212.81 526.99,217.08" type="building"/>
   <poly color="red" fill="1" id="115783331" layer="-1.00" shape="99.33,226.44 105.17,230.79 110.35,223.90 112.60,220.89 106.70,216.48 99.33,226.44" type="building"/>
   <poly color="red" fill="1" id="115783334" layer="-1.00" shape="343.80,342.24 348.98,346.44 355.72,338.18 350.53,333.98 343.80,342.24" type="building"/>
   <poly color="red" fill="1" id="115783336" layer="-1.00" shape="394.46,308.89 391.02,313.93 392.98,315.26 401.06,320.75 404.50,315.72 394.46,308.89" type="building"/>
   <poly color="red" fill="1" id="115783337" layer="-1.00" shape="276.53,221.54 280.93,218.11 272.48,207.32 269.86,209.37 268.64,207.81 266.86,209.19 276.53,221.54" type="building"/>
   <poly color="red" fill="1" id="115783339" layer="-1.00" shape="72.09,204.32 76.65,207.80 83.92,198.32 79.36,194.85 72.09,204.32" type="building"/>
   <poly color="red" fill="1" id="115783340" layer="-1.00" shape="245.04,203.37 241.65,199.04 229.66,208.39 233.05,212.70 245.04,203.37" type="building"/>
   <poly color="red" fill="1" id="115783341" layer="-1.00" shape="128.13,210.86 133.12,214.59 138.59,207.31 140.39,204.93 135.40,201.20 128.13,210.86" type="building"/>
   <poly color="red" fill="1" id="115783342" layer="-1.00" shape="242.63,88.72 249.26,83.47 245.49,78.72 238.85,83.98 242.63,88.72" type="building"/>
   <poly color="red" fill="1" id="115783343" layer="-1.00" shape="211.89,44.74 221.60,36.64 214.21,27.81 204.49,35.91 211.89,44.74" type="building"/>
   <poly color="red" fill="1" id="115783344" layer="-1.00" shape="305.47,261.86 306.59,263.29 316.21,255.73 316.98,256.70 324.24,250.99 324.40,248.11 316.04,237.53 297.65,251.97 305.47,261.86" type="building"/>
   <poly color="red" fill="1" id="115783345" layer="-1.00" shape="383.54,371.85 389.50,376.17 397.04,365.81 391.08,361.50 383.54,371.85" type="building"/>
   <poly color="red" fill="1" id="115783346" layer="-1.00" shape="-0.22,139.75" type="building"/>
   <poly color="red" fill="1" id="115783347" layer="-1.00" shape="317.17,324.02 323.96,314.76 313.54,307.14 306.74,316.40 317.17,324.02" type="building"/>
   <poly color="red" fill="1" id="115783348" layer="-1.00" shape="313.13,194.23 330.67,180.75 321.30,168.63 318.59,165.11 301.05,178.60 309.05,188.95 313.13,194.23" type="building"/>
   <poly color="red" fill="1" id="115783349" layer="-1.00" shape="331.66,219.11 325.56,211.51 317.42,218.00 324.84,227.24 326.63,225.83 330.94,231.37 334.37,235.76 343.68,228.54 351.31,222.61 342.20,210.94 331.66,219.11" type="building"/>
   <poly color="red" fill="1" id="115783350" layer="-1.00" shape="535.21,200.96 545.40,202.93 549.02,184.39 538.82,182.42 535.21,200.96" type="building"/>
   <poly color="red" fill="1" id="115783351" layer="-1.00" shape="130.50,257.34 135.30,260.92 142.58,251.23 137.77,247.65 130.50,257.34" type="building"/>
   <poly color="red" fill="1" id="115783352" layer="-1.00" shape="235.46,173.05 243.20,166.82 235.88,157.77 228.14,164.00 235.46,173.05" type="building"/>
   <poly color="red" fill="1" id="115783353" layer="-1.00" shape="288.51,384.11 295.17,389.03 298.60,384.21 301.50,380.52 297.64,377.66 294.84,375.59 288.51,384.11" type="building"/>
   <poly color="red" fill="1" id="115783354" layer="-1.00" shape="285.00,144.48 293.05,138.01 285.13,128.21 277.08,134.69 283.78,142.98 285.00,144.48" type="building"/>
   <poly color="red" fill="1" id="115783355" layer="-1.00" shape="222.06,252.15 232.94,242.90 225.76,234.50 214.88,243.75 222.06,252.15" type="building"/>
   <poly color="red" fill="1" id="115783356" layer="-1.00" shape="296.86,274.83 306.35,267.37 303.33,263.55 305.47,261.86 297.65,251.97 285.18,261.78 289.61,267.39 290.45,266.72 296.86,274.83" type="building"/>
   <poly color="red" fill="1" id="115783357" layer="-1.00" shape="370.78,401.38 375.72,394.94 362.83,385.10 357.89,391.55 370.78,401.38" type="building"/>
   <poly color="red" fill="1" id="115783358" layer="-1.00" shape="377.31,274.84 373.46,280.46 374.97,281.49 383.06,286.98 386.90,281.35 377.31,274.84" type="building"/>
   <poly color="red" fill="1" id="115783359" layer="-1.00" shape="360.01,354.07 361.62,351.93 367.21,344.54 360.53,339.51 353.31,349.03 360.01,354.07" type="building"/>
   <poly color="red" fill="1" id="115783360" layer="-1.00" shape="131.06,126.42 135.13,131.73 145.32,123.96 141.23,118.65 131.06,126.42" type="building"/>
   <poly color="red" fill="1" id="115783361" layer="-1.00" shape="401.16,261.47 409.45,247.98 401.17,242.92 392.88,256.41 401.16,261.47" type="building"/>
   <poly color="red" fill="1" id="115783362" layer="-1.00" shape="339.25,52.88 361.98,31.34 357.09,26.21 334.37,47.76 339.25,52.88" type="building"/>
   <poly color="red" fill="1" id="115783363" layer="-1.00" shape="366.19,355.37 371.79,347.97 367.21,344.54 361.62,351.93 366.19,355.37" type="building"/>
   <poly color="red" fill="1" id="115783364" layer="-1.00" shape="263.40,157.81 270.60,152.01 262.53,142.04 255.33,147.82 263.40,157.81" type="building"/>
   <poly color="red" fill="1" id="115783365" layer="-1.00" shape="498.93,377.45 505.94,378.97 509.07,364.66 502.06,363.13 498.93,377.45" type="building"/>
   <poly color="red" fill="1" id="115783366" layer="-1.00" shape="94.05,132.62 101.37,122.13 91.57,115.33 84.25,125.82 94.05,132.62" type="building"/>
   <poly color="red" fill="1" id="115783367" layer="-1.00" shape="71.80,124.69 76.29,118.24 67.43,112.09 62.94,118.54 71.80,124.69" type="building"/>
   <poly color="red" fill="1" id="115783368" layer="-1.00" shape="197.22,133.08 199.69,131.15 209.42,123.51 218.59,116.31 214.80,111.50 193.43,128.27 197.22,133.08" type="building"/>
   <poly color="red" fill="1" id="115783369" layer="-1.00" shape="199.06,81.69 212.65,70.60 206.32,62.90 192.73,73.98 199.06,81.69" type="building"/>
   <poly color="red" fill="1" id="115783370" layer="-1.00" shape="216.78,283.86 213.50,280.09 207.24,285.51 211.19,290.05 211.34,289.93 216.23,295.23 225.88,286.37 220.45,280.48 216.78,283.86" type="building"/>
   <poly color="red" fill="1" id="115783371" layer="-1.00" shape="612.57,168.72 623.72,165.91 621.96,158.93 611.41,161.59 609.90,156.64 605.29,158.04 606.39,161.65 599.96,163.60 601.49,168.61 608.00,166.64 607.24,164.13 611.12,162.95 612.57,168.72" type="building"/>
   <poly color="red" fill="1" id="115783373" layer="-1.00" shape="541.78,277.82 539.92,283.93 549.32,286.76 551.17,280.64 541.78,277.82" type="building"/>
   <poly color="red" fill="1" id="115783376" layer="-1.00" shape="406.14,174.43 399.85,167.99 407.87,160.19 414.16,166.64 406.14,174.43" type="building"/>
   <poly color="red" fill="1" id="115783377" layer="-1.00" shape="84.84,177.74 81.48,182.41 91.44,189.52 94.80,184.85 84.84,177.74" type="building"/>
   <poly color="red" fill="1" id="115783378" layer="-1.00" shape="398.77,297.57 395.55,302.27 397.90,303.85 405.63,309.11 408.84,304.41 398.77,297.57" type="building"/>
   <poly color="red" fill="1" id="115783379" layer="-1.00" shape="189.95,217.58 202.01,207.64 194.52,198.60 182.45,208.53 189.95,217.58" type="building"/>
   <poly color="red" fill="1" id="115783380" layer="-1.00" shape="53.27,195.99 57.98,199.09 65.08,188.37 60.37,185.26 53.27,195.99" type="building"/>
   <poly color="red" fill="1" id="115783381" layer="-1.00" shape="97.01,87.97 106.64,80.44 99.89,71.87 90.27,79.40 97.01,87.97" type="building"/>
   <poly color="red" fill="1" id="115783382" layer="-1.00" shape="501.38,317.86 512.02,320.30 514.12,311.17 505.87,309.28 503.49,308.73 501.38,317.86" type="building"/>
   <poly color="red" fill="1" id="115783383" layer="-1.00" shape="449.27,358.41 445.09,363.81 455.23,371.63 459.42,366.23 449.27,358.41" type="building"/>
   <poly color="red" fill="1" id="115783384" layer="-1.00" shape="223.58,61.67 234.20,53.32 224.65,41.23 214.03,49.60 223.58,61.67" type="building"/>
   <poly color="red" fill="1" id="115783385" layer="-1.00" shape="104.96,98.62 109.71,104.30 120.31,95.49 115.56,89.81 104.96,98.62" type="building"/>
   <poly color="red" fill="1" id="115783386" layer="-1.00" shape="350.89,429.82 355.63,423.63 357.88,420.68 348.00,413.17 341.01,422.29 350.89,429.82" type="building"/>
   <poly color="red" fill="1" id="115783387" layer="-1.00" shape="77.25,113.26 84.17,103.46 74.60,96.74 67.68,106.56 77.25,113.26" type="building"/>
   <poly color="red" fill="1" id="115783388" layer="-1.00" shape="358.02,439.11 364.63,430.48 355.63,423.63 350.89,429.82 349.01,432.26 358.02,439.11" type="building"/>
   <poly color="red" fill="1" id="115783390" layer="-1.00" shape="486.66,380.82 488.78,368.07 479.71,366.57 477.60,379.32 486.66,380.82" type="building"/>
   <poly color="red" fill="1" id="115783391" layer="-1.00" shape="407.45,267.49 416.21,273.54 425.09,260.78 416.33,254.71 407.45,267.49" type="building"/>
   <poly color="red" fill="1" id="115783393" layer="-1.00" shape="149.08,186.40 158.60,179.10 151.90,170.42 142.38,177.73 149.08,186.40" type="building"/>
   <poly color="red" fill="1" id="115783394" layer="-1.00" shape="526.39,352.02 536.46,353.93 539.19,339.66 529.12,337.75 526.39,352.02" type="building"/>
   <poly color="red" fill="1" id="115783396" layer="-1.00" shape="117.66,244.42 122.51,248.04 128.17,240.49 129.76,238.38 124.91,234.76 117.66,244.42" type="building"/>
   <poly color="red" fill="1" id="115783397" layer="-1.00" shape="302.93,399.87 305.94,395.81 308.75,391.72 298.60,384.21 295.17,389.03 292.62,392.26 302.93,399.87" type="building"/>
   <poly color="red" fill="1" id="115783398" layer="-1.00" shape="535.56,302.48 533.77,310.39 543.15,312.50 544.94,304.59 535.56,302.48" type="building"/>
   <poly color="red" fill="1" id="115783399" layer="-1.00" shape="460.26,334.92 456.23,340.58 465.67,347.27 469.70,341.62 460.26,334.92" type="building"/>
   <poly color="red" fill="1" id="115783400" layer="-1.00" shape="75.87,137.61 71.41,143.99 80.49,150.29 84.95,143.90 75.87,137.61" type="building"/>
   <poly color="red" fill="1" id="115783401" layer="-1.00" shape="234.52,267.31 245.56,257.96 238.51,249.68 227.46,259.03 234.52,267.31" type="building"/>
   <poly color="red" fill="1" id="115783402" layer="-1.00" shape="521.62,377.00 531.68,378.91 533.30,370.47 523.23,368.56 521.62,377.00" type="building"/>
   <poly color="red" fill="1" id="115783403" layer="-1.00" shape="218.26,307.16 212.29,313.46 222.50,323.10 228.72,316.55 223.33,311.46 218.26,307.16" type="building"/>
   <poly color="red" fill="1" id="115783404" layer="-1.00" shape="48.37,159.36 54.16,151.04 46.13,145.47 40.33,153.79 48.37,159.36" type="building"/>
   <poly color="red" fill="1" id="115783405" layer="-1.00" shape="204.36,137.06 207.54,134.57 214.09,129.43 209.42,123.51 199.69,131.15 204.36,137.06" type="building"/>
   <poly color="red" fill="1" id="115783406" layer="-1.00" shape="291.63,182.42 283.59,172.03 273.99,179.41 291.67,202.30 309.05,188.95 301.05,178.60 299.40,176.45 291.63,182.42" type="building"/>
   <poly color="red" fill="1" id="115783407" layer="-1.00" shape="506.68,286.84 520.63,289.48 522.62,279.07 508.67,276.42 506.68,286.84" type="building"/>
   <poly color="red" fill="1" id="115783409" layer="-1.00" shape="212.04,140.29 213.49,139.15 221.40,132.95 216.88,127.23 214.09,129.43 207.54,134.57 212.04,140.29" type="building"/>
   <poly color="red" fill="1" id="115783410" layer="-1.00" shape="369.29,363.52 377.69,352.41 371.79,347.97 366.19,355.37 363.39,359.08 369.29,363.52" type="building"/>
   <poly color="red" fill="1" id="115783411" layer="-1.00" shape="136.42,84.65 147.43,75.03 135.24,61.13 124.22,70.75 136.42,84.65" type="building"/>
   <poly color="red" fill="1" id="115783412" layer="-1.00" shape="184.97,51.47 178.26,43.14 171.39,48.63 178.17,57.06 185.72,66.18 197.31,56.65 189.77,47.52 184.97,51.47" type="building"/>
   <poly color="red" fill="1" id="115783414" layer="-1.00" shape="209.97,190.29 216.64,184.76 208.62,175.16 201.95,180.70 209.97,190.29" type="building"/>
   <poly color="red" fill="1" id="115783415" layer="-1.00" shape="388.31,249.38 394.66,240.11 386.05,234.26 379.70,243.53 388.31,249.38" type="building"/>
   <poly color="red" fill="1" id="115783416" layer="-1.00" shape="38.41,186.55 42.81,189.79 50.51,179.38 46.09,176.15 38.41,186.55" type="building"/>
   <poly color="red" fill="1" id="115783417" layer="-1.00" shape="536.07,113.59 548.40,119.51 554.78,106.31 542.44,100.39 536.07,113.59" type="building"/>
   <poly color="red" fill="1" id="115783418" layer="-1.00" shape="497.57,352.24 508.30,354.37 510.20,344.86 499.48,342.72 497.57,352.24" type="building"/>
   <poly color="red" fill="1" id="115783419" layer="-1.00" shape="531.18,321.86 542.85,324.48 545.44,313.01 543.15,312.50 533.77,310.39 531.18,321.86" type="building"/>
   <poly color="red" fill="1" id="115783420" layer="-1.00" shape="187.76,265.54 195.17,257.17 186.85,249.86 179.45,258.23 187.76,265.54" type="building"/>
   <poly color="red" fill="1" id="115783421" layer="-1.00" shape="169.91,46.22 182.17,36.10 175.67,28.26 163.41,38.39 169.91,46.22" type="building"/>
   <poly color="red" fill="1" id="115783422" layer="-1.00" shape="524.96,359.50 535.03,361.41 536.46,353.93 526.39,352.02 524.96,359.50" type="building"/>
   <poly color="red" fill="1" id="115783423" layer="-1.00" shape="140.96,224.01 145.73,227.58 152.92,218.03 148.15,214.46 140.96,224.01" type="building"/>
   <poly color="red" fill="1" id="115783424" layer="-1.00" shape="67.43,130.95 71.80,124.69 62.94,118.54 58.57,124.80 67.43,130.95" type="building"/>
   <poly color="red" fill="1" id="115783425" layer="-1.00" shape="407.47,443.72 412.19,436.56 415.17,438.50 417.82,434.46 419.54,431.84 395.99,416.43 386.90,430.25 407.47,443.72" type="building"/>
   <poly color="red" fill="1" id="115783426" layer="-1.00" shape="429.97,312.24 426.05,317.78 435.53,324.44 439.45,318.90 429.97,312.24" type="building"/>
   <poly color="red" fill="1" id="115783427" layer="-1.00" shape="250.51,198.50 266.29,186.31 263.07,182.16 247.28,194.34 250.51,198.50" type="building"/>
   <poly color="red" fill="1" id="115783428" layer="-1.00" shape="516.73,261.95 514.51,261.52 512.31,273.02 522.66,274.99 524.83,263.65 516.73,261.95" type="building"/>
   <poly color="red" fill="1" id="115783429" layer="-1.00" shape="206.77,234.82 218.55,225.09 205.46,209.32 193.68,219.06 206.77,234.82" type="building"/>
   <poly color="red" fill="1" id="115783430" layer="-1.00" shape="193.08,18.78 187.72,23.37 196.07,33.07 201.43,28.47 193.08,18.78" type="building"/>
   <poly color="red" fill="1" id="115783431" layer="-1.00" shape="428.05,462.10 437.68,447.45 417.82,434.46 415.17,438.50 412.19,436.56 407.47,443.72 405.21,447.17 406.88,448.26 424.75,459.95 428.05,462.10" type="building"/>
   <poly color="red" fill="1" id="115783433" layer="-1.00" shape="513.23,-18.44 509.33,-23.07 513.23,-18.44" type="building"/>
   <poly color="red" fill="1" id="115783434" layer="-1.00" shape="275.73,202.19 273.93,203.59 275.20,205.21 272.48,207.32 280.93,218.11 285.45,214.58 275.73,202.19" type="building"/>
   <poly color="red" fill="1" id="115783435" layer="-1.00" shape="351.31,222.61 358.76,216.83 364.54,212.36 367.63,216.33 375.79,210.00 372.48,205.75 363.58,194.35 342.20,210.94 351.31,222.61" type="building"/>
   <poly color="red" fill="1" id="115783436" layer="-1.00" shape="267.48,101.10 271.64,106.24 281.37,98.42 277.21,93.28 267.48,101.10" type="building"/>
   <poly color="red" fill="1" id="115783437" layer="-1.00" shape="258.30,226.42 255.77,228.40 253.63,225.67 251.91,227.02 259.17,236.30 263.43,232.97 258.30,226.42" type="building"/>
   <poly color="red" fill="1" id="115783438" layer="-1.00" shape="303.39,312.33 308.98,304.69 298.47,297.04 292.88,304.68 303.39,312.33" type="building"/>
   <poly color="red" fill="1" id="115783439" layer="-1.00" shape="258.12,208.57 277.85,192.22 274.61,188.33 254.88,204.69 258.12,208.57" type="building"/>
   <poly color="red" fill="1" id="115783440" layer="-1.00" shape="321.30,168.63 333.25,159.45 323.58,146.93 311.63,156.10 318.59,165.11 321.30,168.63" type="building"/>
   <poly color="red" fill="1" id="115783441" layer="-1.00" shape="288.74,303.21 297.15,292.34 284.64,282.72 276.23,293.59 288.74,303.21" type="building"/>
   <poly color="red" fill="1" id="115783442" layer="-1.00" shape="246.09,343.33 254.92,332.13 247.54,326.35 238.71,337.56 246.09,343.33" type="building"/>
   <poly color="red" fill="1" id="115783443" layer="-1.00" shape="172.34,200.47 179.95,194.32 171.69,184.17 164.09,190.33 172.34,200.47" type="building"/>
   <poly color="red" fill="1" id="115783444" layer="-1.00" shape="354.69,257.40 359.17,251.34 352.68,246.58 349.56,244.29 345.09,250.35 353.87,256.80 354.69,257.40" type="building"/>
   <poly color="red" fill="1" id="115783445" layer="-1.00" shape="199.72,278.47 206.22,268.94 196.22,262.17 189.72,271.69 199.72,278.47" type="building"/>
   <poly color="red" fill="1" id="115783446" layer="-1.00" shape="505.87,309.28 514.12,311.17 515.65,311.51 517.69,302.65 507.92,300.42 505.87,309.28" type="building"/>
   <poly color="red" fill="1" id="115783447" layer="-1.00" shape="479.18,309.67 487.07,298.78 478.83,292.84 470.94,303.74 479.18,309.67" type="building"/>
   <poly color="red" fill="1" id="115783448" layer="-1.00" shape="66.95,168.53 73.28,159.45 65.95,154.37 59.62,163.45 66.95,168.53" type="building"/>
   <poly color="red" fill="1" id="115783449" layer="-1.00" shape="56.57,144.39 63.39,134.61 52.02,126.73 45.20,136.50 56.57,144.39" type="building"/>
   <poly color="red" fill="1" id="115783450" layer="-1.00" shape="368.60,290.80 365.42,295.47 366.37,296.11 374.66,301.73 377.84,297.06 368.60,290.80" type="building"/>
   <poly color="red" fill="1" id="115783451" layer="-1.00" shape="117.59,202.97 123.14,207.12 130.41,197.46 124.86,193.31 117.59,202.97" type="building"/>
   <poly color="red" fill="1" id="115783452" layer="-1.00" shape="330.56,277.83 327.10,282.52 336.66,289.53 340.12,284.84 330.56,277.83" type="building"/>
   <poly color="red" fill="1" id="115783453" layer="-1.00" shape="230.71,114.14 234.62,118.87 242.76,112.18 238.86,107.45 230.71,114.14" type="building"/>
   <poly color="red" fill="1" id="115783454" layer="-1.00" shape="107.96,237.19 112.81,240.81 120.05,231.15 115.20,227.52 107.96,237.19" type="building"/>
   <poly color="red" fill="1" id="115783455" layer="-1.00" shape="175.04,97.04 186.11,88.43 177.59,77.54 166.54,86.15 175.04,97.04" type="building"/>
   <poly color="red" fill="1" id="115783456" layer="-1.00" shape="221.17,180.41 228.69,174.36 222.18,166.33 214.66,172.40 221.17,180.41" type="building"/>
   <poly color="red" fill="1" id="115783457" layer="-1.00" shape="327.97,330.73 333.97,335.59 340.61,327.42 334.61,322.56 327.97,330.73" type="building"/>
   <poly color="red" fill="1" id="115783458" layer="-1.00" shape="147.24,60.95 162.27,48.90 153.19,37.63 138.16,49.68 147.24,60.95" type="building"/>
   <poly color="red" fill="1" id="115783459" layer="-1.00" shape="176.19,164.33 179.91,169.04 184.25,165.63 188.42,162.35 184.70,157.63 176.19,164.33" type="building"/>
   <poly color="red" fill="1" id="115783460" layer="-1.00" shape="174.94,253.13 180.57,246.47 171.84,239.14 166.21,245.80 174.94,253.13" type="building"/>
   <poly color="red" fill="1" id="115783461" layer="-1.00" shape="21.89,177.44 27.80,181.39 34.37,171.59 28.46,167.65 21.89,177.44" type="building"/>
   <poly color="red" fill="1" id="115783462" layer="-1.00" shape="182.87,304.78 194.73,314.52 204.66,302.52 192.79,292.76 182.87,304.78" type="building"/>
   <poly color="red" fill="1" id="115783463" layer="-1.00" shape="521.97,234.76 519.80,245.65 530.38,247.75 532.51,237.02 527.26,235.98 521.97,234.76" type="building"/>
   <poly color="red" fill="1" id="115783464" layer="-1.00" shape="497.67,335.80 511.62,338.32 513.72,326.76 499.78,324.24 497.67,335.80" type="building"/>
   <poly color="red" fill="1" id="115783465" layer="-1.00" shape="96.37,162.76 92.57,167.67 102.28,175.13 106.08,170.22 96.37,162.76" type="building"/>
   <poly color="red" fill="1" id="115914056" layer="-1.00" shape="224.31,658.87 225.74,654.73 229.65,651.22 221.66,643.17 211.73,651.63 211.57,658.10 214.62,664.27 209.88,666.90 214.08,674.41 228.51,666.38 224.31,658.87" type="building"/>
   <poly color="red" fill="1" id="115914059" layer="-1.00" shape="89.28,734.77 91.98,739.82 102.24,734.38 99.54,729.31 89.28,734.77" type="building"/>
   <poly color="red" fill="1" id="115914060" layer="-1.00" shape="251.82,681.14 273.36,656.93 267.25,651.49 264.91,649.40 257.37,657.89 243.36,673.63 251.82,681.14" type="building"/>
   <poly color="red" fill="1" id="115914061" layer="-1.00" shape="290.45,578.26 295.57,576.35 294.51,573.56 291.59,565.75 286.47,567.66 290.45,578.26" type="building"/>
   <poly color="red" fill="1" id="115914064" layer="-1.00" shape="111.44,717.02 141.04,771.10 170.75,754.93 159.03,733.51 145.96,740.61 128.09,707.96 111.44,717.02" type="building"/>
   <poly color="red" fill="1" id="115914066" layer="-1.00" shape="75.94,761.32 78.64,766.39 88.90,760.93 86.20,755.88 75.94,761.32" type="building"/>
   <poly color="red" fill="1" id="115914070" layer="-1.00" shape="263.22,592.72 259.19,598.02 266.97,603.91 271.00,598.61 263.22,592.72" type="building"/>
   <poly color="red" fill="1" id="115914072" layer="-1.00" shape="42.36,796.38 72.74,779.58 70.08,774.77 39.70,791.58 42.36,796.38" type="building"/>
   <poly color="237,199,199" fill="1" id="115914078" layer="-1.00" shape="359.56,574.67 373.55,559.97 372.77,559.24 385.15,546.23 379.07,540.47 366.69,553.48 364.90,551.78 350.91,566.47 357.97,573.16 359.56,574.67" type="amenity"/>
   <poly color="red" fill="1" id="115914078#1" layer="-1.00" shape="359.56,574.67 373.55,559.97 372.77,559.24 385.15,546.23 379.07,540.47 366.69,553.48 364.90,551.78 350.91,566.47 357.97,573.16 359.56,574.67" type="building"/>
   <poly color="red" fill="1" id="115914082" layer="-1.00" shape="105.34,765.15 108.03,770.21 118.30,764.76 115.60,759.71 105.34,765.15" type="building"/>
   <poly color="red" fill="1" id="115914085" layer="-1.00" shape="290.53,562.92 291.59,565.75 294.51,573.56 302.78,570.47 298.80,559.83 290.53,562.92" type="building"/>
   <poly color="red" fill="1" id="115914090" layer="-1.00" shape="174.23,733.75 191.56,724.05 169.88,685.49 152.54,695.19 174.23,733.75" type="building"/>
   <poly color="237,199,255" fill="1" id="115914090#1" layer="-1.00" shape="174.23,733.75 191.56,724.05 169.88,685.49 152.54,695.19 174.23,733.75" type="shop"/>
   <poly color="red" fill="1" id="115914091" layer="-1.00" shape="24.96,795.86 38.52,788.46 32.36,777.26 24.96,795.86" type="building"/>
   <poly color="red" fill="1" id="115914094" layer="-1.00" shape="276.91,660.08 318.90,612.88 309.24,604.30 290.93,624.89 267.25,651.49 273.36,656.93 276.91,660.08" type="building"/>