<?xml version="1.0" encoding="utf-8"?><!-- generated on 10/11/17 17:49:25 by SUMO polyconvert Version 0.25.0
<?xml version="1.0" encoding="UTF-8"?>

<configuration xmlns:xsi="http://www.w3.org/2001/XMLSchema-instance" xsi:noNamespaceSchemaLocation="http://sumo.dlr.de/xsd/polyconvertConfiguration.xsd">

    <input>
        <net-file value="AC_RotheErde_industrial_800.net.xml"/>
        <osm-files value="AC_RotheErde_industrial_800.osm"/>
        <type-file value="osmPolyconvert.typ.xml"/>
    </input>

    <output>
        <output-file value="AC_RotheErde_industrial_800.poly.xml"/>
    </output>

    <projection>
        <proj.utm value="true"/>
    </projection>

    <processing>
        <poi-layer-offset value="5"/>
    </processing>

</configuration>
-->
<additional>
   <location convBoundary="-2.46,-3.89,961.84,961.33" netOffset="-297337.94,-5628090.76" origBoundary="6.125701,50.769405,6.138996,50.777793" projParameter="+proj=utm +zone=32 +ellps=WGS84 +datum=WGS84 +units=m +no_defs"/>
   <poly color="209,209,204" fill="0" id="104135224" layer="-3.00" shape="131.93,104.36 463.09,46.78 448.16,50.25 408.69,59.43 410.19,105.31 401.69,134.19 383.11,216.82 433.06,201.66 442.62,215.76 467.84,208.05 493.15,286.86 359.31,328.32 298.09,351.33 237.77,368.91 153.83,395.63 110.44,403.28 73.81,403.65" type="industrial"/>
   <poly color="194,194,130" fill="1" id="104135230" layer="-3.00" shape="596.34,167.11 516.66,200.59 510.02,171.62 579.02,139.70 575.48,115.81 614.03,99.55 794.81,120.92 798.02,128.90 787.76,148.69 763.60,176.83 731.36,198.63 697.22,216.45 660.81,228.00 645.75,228.87 635.43,224.64 612.69,199.76 603.92,183.02 596.34,167.11" type="landuse"/>
   <poly color="194,194,130" fill="1" id="104387650" layer="-3.00" shape="914.34,25.63 886.47,44.01 866.75,67.28 853.21,95.93 857.54,106.95 894.04,125.99 901.81,113.46 928.89,22.01 914.34,25.63" type="landuse"/>
   <poly color="140,196,107" fill="0" id="104387652" layer="-4.00" shape="919.57,123.62 909.77,119.75 901.81,113.46 894.04,125.99 919.51,140.68" type="forest"/>
   <poly color="194,194,130" fill="1" id="108375581" layer="-3.00" shape="408.69,59.43 410.19,105.31 401.69,134.19 383.11,216.82 433.06,201.66 442.62,215.76 467.84,208.05 493.15,286.86 636.05,241.87 635.43,224.64 612.69,199.76 603.92,183.02 596.34,167.11 516.66,200.59 510.02,171.62 484.98,91.64 463.09,46.78 448.16,50.25 408.69,59.43" type="landuse"/>
   <poly color="237,199,199" fill="1" id="109505184" layer="-1.00" shape="422.88,407.15 440.44,401.26 440.23,400.63 438.05,394.15 420.48,400.04 422.88,407.15" type="amenity"/>
   <poly color="red" fill="1" id="109505184#1" layer="-1.00" shape="422.88,407.15 440.44,401.26 440.23,400.63 438.05,394.15 420.48,400.04 422.88,407.15" type="building"/>
   <poly color="red" fill="1" id="109505185" layer="-1.00" shape="462.12,393.28 458.91,383.77 437.02,391.13 438.05,394.15 440.23,400.63 462.12,393.28" type="building"/>
   <poly color="red" fill="1" id="115792294" layer="-1.00" shape="581.64,443.58 585.31,455.18 589.02,454.01 592.59,452.90 593.69,456.36 637.91,442.47 631.43,421.94 606.77,343.84 600.11,345.93 589.16,349.37 555.27,360.02 556.93,365.32 581.64,443.58" type="building"/>
   <poly color="red" fill="1" id="115792296" layer="-1.00" shape="509.51,380.22 534.22,458.48 581.64,443.58 556.93,365.32 509.51,380.22" type="building"/>
   <poly color="red" fill="1" id="115792300" layer="-1.00" shape="819.81,672.59 838.45,730.11 877.58,717.48 913.11,689.77 899.23,646.98 819.81,672.59" type="building"/>
   <poly color="red" fill="1" id="115792302" layer="-1.00" shape="255.91,85.21 277.92,113.19 292.28,101.96 270.28,73.97 263.98,78.89 255.91,85.21" type="building"/>
   <poly color="red" fill="1" id="115792303" layer="-1.00" shape="188.17,178.42 238.26,181.24 243.02,97.49 208.19,95.52 207.19,113.12 191.00,128.52 190.32,140.46 190.18,143.07 189.88,148.32 188.17,178.42" type="building"/>
   <poly color="red" fill="1" id="115792307" layer="-1.00" shape="310.94,151.09 324.32,151.86 325.47,132.32 312.09,131.53 310.94,151.09" type="building"/>
   <poly color="red" fill="1" id="115792308" layer="-1.00" shape="948.30,738.50 949.44,740.95 952.64,747.80 948.30,738.50" type="building"/>
   <poly color="red" fill="1" id="115792309" layer="-1.00" shape="928.77,707.93 929.22,708.53 935.48,716.70 942.69,726.12 928.77,707.93" type="building"/>
   <poly color="red" fill="1" id="115792314" layer="-1.00" shape="762.44,712.21 765.35,721.48 818.18,705.01 815.28,695.73 813.48,696.29 762.44,712.21" type="building"/>
   <poly color="red" fill="1" id="115792317" layer="-1.00" shape="454.98,638.99 442.71,604.77 423.19,611.66 435.55,645.84 454.98,638.99" type="building"/>
   <poly color="red" fill="1" id="115792318" layer="-1.00" shape="287.81,21.59" type="building"/>
   <poly color="red" fill="1" id="115792321" layer="-1.00" shape="21.61,213.85 143.54,177.57 135.30,150.00 128.34,152.07 81.19,166.09 27.20,182.15 29.04,188.32 15.22,192.44 21.61,213.85" type="building"/>
   <poly color="red" fill="1" id="115792323" layer="-1.00" shape="109.74,448.84 133.15,471.25 140.56,463.69 116.99,441.08 109.74,448.84" type="building"/>
   <poly color="red" fill="1" id="115792325" layer="-1.00" shape="272.01,210.30 248.21,209.10 245.13,269.19 252.56,269.57 251.08,296.93 251.01,299.90 255.58,300.13 334.04,304.12 350.59,274.70 359.69,255.54 361.78,214.86 272.01,210.30" type="building"/>
   <poly color="red" fill="1" id="115792326" layer="-1.00" shape="560.54,600.74 531.61,609.64 539.09,633.81 560.11,627.44 557.49,617.34 564.60,615.03 560.54,600.74" type="building"/>
   <poly color="red" fill="1" id="115792329" layer="-1.00" shape="124.84,121.95 144.16,145.06 149.51,151.47 165.50,138.16 140.83,108.66 124.84,121.95" type="building"/>
   <poly color="red" fill="1" id="115792331" layer="-1.00" shape="709.69,706.51 716.01,726.69 762.44,712.21 813.48,696.29 811.74,690.73 813.19,690.28 808.61,675.65 709.69,706.51" type="building"/>
   <poly color="red" fill="1" id="115792333" layer="-1.00" shape="264.62,38.18 277.38,29.60 260.21,27.97 259.31,28.74 258.90,29.69 258.92,30.80 259.42,31.72 264.62,38.18" type="building"/>
   <poly color="red" fill="1" id="115792335" layer="-1.00" shape="275.93,60.40 280.76,66.59 282.23,65.45 318.20,37.46 315.55,34.07 334.06,19.66 303.88,31.94 307.15,36.11 275.93,60.40" type="building"/>
   <poly color="red" fill="0" id="115792342" layer="-1.00" shape="205.56,31.17 208.07,29.69 209.38,32.15 218.58,26.82" type="building"/>
   <poly color="red" fill="1" id="115792344" layer="-1.00" shape="137.92,445.70 147.60,454.85 149.55,452.89 141.76,445.55 144.38,442.77 155.18,452.99 169.09,438.31 152.37,422.59 148.88,426.39 154.47,431.58 152.57,433.56 150.66,431.79 142.28,440.79 142.41,441.00 137.92,445.70" type="building"/>
   <poly color="red" fill="1" id="115792346" layer="-1.00" shape="272.01,210.30 361.78,214.86 372.45,215.32 374.39,181.09 273.67,175.52 272.01,210.30" type="building"/>
   <poly color="red" fill="1" id="115792355" layer="-1.00" shape="11.20,302.83" type="building"/>
   <poly color="red" fill="1" id="115792358" layer="-1.00" shape="766.66,728.70 771.17,742.58 795.42,734.73 790.90,720.85 766.66,728.70" type="building"/>
   <poly color="red" fill="1" id="115792359" layer="-1.00" shape="414.84,485.97 417.77,495.05 419.18,494.61 419.83,496.60 424.09,498.71 432.99,495.85 432.04,492.92 431.31,490.66 433.63,489.92 430.71,480.87 414.84,485.97" type="building"/>
   <poly color="red" fill="1" id="115792362" layer="-1.00" shape="628.31,331.18 646.96,388.85 698.17,372.36 679.52,314.68 656.07,322.24 653.62,323.02 628.31,331.18" type="building"/>
   <poly color="red" fill="1" id="115792363" layer="-1.00" shape="391.76,306.96 454.37,287.29 435.01,225.94 382.77,242.36 390.35,266.40 379.99,269.65 391.76,306.96" type="building"/>
   <poly color="red" fill="1" id="115792365" layer="-1.00" shape="669.35,721.03 647.46,727.89 651.15,739.63 673.05,732.77 669.35,721.03" type="building"/>
   <poly color="red" fill="1" id="115793180" layer="-1.00" shape="592.69,928.87 610.31,920.00 603.89,907.05 585.87,915.69 592.69,928.87" type="building"/>
   <poly color="red" fill="0" id="115793194" layer="-1.00" shape="553.41,933.54 547.48,929.34" type="building"/>
   <poly color="red" fill="0" id="115793199" layer="-1.00" shape="507.98,943.98 463.53,912.24 456.23,922.41 451.97,919.37 472.18,891.22 461.55,883.62 441.52,911.52 442.54,912.25 440.40,915.22 446.08,919.28" type="building"/>
   <poly color="194,194,130" fill="0" id="136217194" layer="-3.00" shape="28.64,773.08 85.54,815.91 142.26,860.50 165.88,879.06 314.88,929.98 181.93,845.01 195.76,824.43 193.68,822.16 149.61,771.95 114.64,738.22 106.30,747.60" type="landuse"/>
   <poly color="red" fill="0" id="159921805" layer="-1.00" shape="23.34,802.80 24.95,794.26 23.72,790.29" type="building"/>
   <poly color="red" fill="1" id="159921822" layer="-1.00" shape="24.52,815.02 27.28,823.18 31.91,816.57 30.61,812.94 30.01,813.34 24.52,815.02" type="building"/>
   <poly color="red" fill="1" id="159921835" layer="-1.00" shape="41.12,804.55 44.40,806.67 49.97,798.02 43.55,793.63 33.49,808.32 36.91,810.89 41.12,804.55" type="building"/>
   <poly color="red" fill="1" id="159921837" layer="-1.00" shape="253.05,920.37 253.95,919.08 258.77,922.42 261.11,919.05 252.19,912.88 248.95,917.54 253.05,920.37" type="building"/>
   <poly color="red" fill="1" id="159921851" layer="-1.00" shape="33.80,799.69 29.44,805.50 33.49,808.32 43.55,793.63 37.39,789.37 31.79,797.06 31.05,797.80 33.80,799.69" type="building"/>
   <poly color="red" fill="0" id="159921854" layer="-1.00" shape="24.52,815.02 30.01,813.34 25.43,798.49 23.34,802.80" type="building"/>
   <poly color="red" fill="1" id="159921866" layer="-1.00" shape="49.36,813.22 48.24,814.14 55.45,821.31 52.88,823.44 57.62,828.27 65.11,818.63 58.83,812.25 60.72,810.34 56.51,806.06 57.66,804.92 49.97,798.02 44.40,806.67 43.72,807.55 49.36,813.22" type="building"/>
   <poly color="red" fill="1" id="159921868" layer="-1.00" shape="23.72,790.29 26.81,789.39 27.27,792.49 28.81,793.58 28.19,794.75 31.79,797.06 37.39,789.37 24.70,780.10 23.72,790.29" type="building"/>
   <poly color="red" fill="1" id="159921870" layer="-1.00" shape="57.62,828.27 55.52,830.32 57.79,832.80 56.81,833.57 61.35,838.89 62.34,838.10 65.25,841.44 76.62,831.72 65.11,818.63 57.62,828.27" type="building"/>
   <poly color="red" fill="1" id="163556240" layer="-1.00" shape="251.08,296.93 246.24,296.71 245.97,301.82 244.61,301.75 243.83,302.46 243.65,306.09 244.91,306.80 247.47,306.93 249.50,305.25 253.85,305.47 254.03,301.93 255.52,302.01 255.58,300.13 251.01,299.90 251.08,296.93" type="building"/>
   <poly color="red" fill="1" id="163556241" layer="-1.00" shape="270.28,73.97 267.21,70.07 260.91,74.99 263.98,78.89 270.28,73.97" type="building"/>
   <poly color="red" fill="1" id="163556242" layer="-1.00" shape="306.03,106.18 306.54,95.75 301.10,95.49 300.58,105.93 306.03,106.18" type="building"/>
   <poly color="red" fill="1" id="163556243" layer="-1.00" shape="369.13,26.91 369.31,17.44 362.49,17.31 362.31,26.78 369.13,26.91" type="building"/>
   <poly color="red" fill="1" id="163556247" layer="-1.00" shape="27.05,280.78 28.10,282.15 40.77,272.48 32.63,261.88 19.96,271.55 27.05,280.78" type="building"/>
   <poly color="red" fill="1" id="163556249" layer="-1.00" shape="19.96,271.55 18.99,270.29 6.66,279.71 14.72,290.20 27.05,280.78 19.96,271.55" type="building"/>
   <poly color="red" fill="1" id="163556252" layer="-1.00" shape="334.06,19.66 353.53,44.55 333.49,60.14 339.02,67.19 365.30,46.74 334.06,19.66" type="building"/>
   <poly color="red" fill="1" id="163556255" layer="-1.00" shape="287.81,21.59 282.04,26.11 287.81,21.59" type="building"/>
   <poly color="red" fill="1" id="163556258" layer="-1.00" shape="111.89,62.18 119.81,55.22 101.87,34.88 93.86,41.90 101.29,50.32 98.67,52.61 101.66,56.00 104.36,53.64 111.89,62.18" type="building"/>
   <poly color="red" fill="1" id="163556260" layer="-1.00" shape="275.93,60.40 273.51,62.28 281.54,72.54 284.22,70.47 283.26,69.24 284.47,68.30 282.23,65.45 280.76,66.59 275.93,60.40" type="building"/>
   <poly color="red" fill="0" id="163556262" layer="-1.00" shape="130.76,46.42 142.27,36.51" type="building"/>
   <poly color="red" fill="1" id="163641827" layer="-1.00" shape="16.64,381.36 9.03,371.68 11.14,385.00 19.86,386.71 31.51,380.31 29.47,375.85 30.38,372.64 26.32,367.72 23.24,370.26 26.13,373.94 16.64,381.36" type="building"/>
   <poly color="red" fill="1" id="163641829" layer="-1.00" shape="151.78,51.50 153.87,49.63 150.70,46.10 148.62,47.97 151.78,51.50" type="building"/>
   <poly color="red" fill="1" id="163641832" layer="-1.00" shape="111.56,101.07 119.92,98.06 116.74,89.27 108.38,92.27 111.56,101.07" type="building"/>
   <poly color="red" fill="1" id="163641833" layer="-1.00" shape="345.26,88.78 348.01,78.82 343.16,77.50 340.42,87.46 345.26,88.78" type="building"/>
   <poly color="red" fill="1" id="163641836" layer="-1.00" shape="148.17,53.86 141.01,45.58 136.79,49.21 143.96,57.49 148.17,53.86" type="building"/>
   <poly color="red" fill="1" id="163641849" layer="-1.00" shape="381.76,70.77 381.81,62.80 376.11,62.77 376.06,70.73 381.76,70.77" type="building"/>
   <poly color="red" fill="1" id="163641852" layer="-1.00" shape="188.57,36.12 175.61,43.58 180.53,52.08 193.49,44.62 188.57,36.12" type="building"/>
   <poly color="red" fill="1" id="163641857" layer="-1.00" shape="135.36,385.48 134.43,392.30 159.69,387.37 158.44,380.98 135.36,385.48" type="building"/>
   <poly color="red" fill="1" id="163641862" layer="-1.00" shape="60.86,348.09 51.63,347.05 41.21,345.89 38.28,371.79 57.94,373.99 60.86,348.09" type="building"/>
   <poly color="red" fill="1" id="163641866" layer="-1.00" shape="29.32,316.38 28.13,317.26 19.46,323.74 26.92,333.67 36.78,326.31 29.32,316.38" type="building"/>
   <poly color="red" fill="1" id="163641869" layer="-1.00" shape="188.57,36.12 151.75,33.50 162.08,51.36 175.61,43.58 188.57,36.12" type="building"/>
   <poly color="red" fill="1" id="163641870" layer="-1.00" shape="122.55,390.69 134.43,392.30 135.36,385.48 137.78,367.71 125.90,366.10 122.55,390.69" type="building"/>
   <poly color="red" fill="0" id="163641873" layer="-1.00" shape="19.46,323.74 28.13,317.26 24.76,312.77" type="building"/>
   <poly color="red" fill="1" id="163641877" layer="-1.00" shape="51.63,347.05 60.86,348.09 61.36,343.75 62.34,335.06 52.69,333.96 51.63,347.05" type="building"/>
   <poly color="red" fill="1" id="163641879" layer="-1.00" shape="95.49,93.10 93.15,83.88 87.38,85.43 89.93,95.53 93.84,94.35 93.62,93.77 95.49,93.10" type="building"/>
   <poly color="red" fill="1" id="163641880" layer="-1.00" shape="151.75,33.50 147.03,36.23 147.99,37.88 161.62,53.52 162.90,52.78 162.08,51.36 151.75,33.50" type="building"/>
   <poly color="red" fill="1" id="163641882" layer="-1.00" shape="56.56,386.18 66.16,387.25 70.95,344.82 61.36,343.75 60.86,348.09 57.94,373.99 56.56,386.18" type="building"/>
   <poly color="red" fill="1" id="163641884" layer="-1.00" shape="151.77,67.08 158.94,60.92 150.84,51.57 148.17,53.86 143.96,57.49 143.68,57.73 151.77,67.08" type="building"/>
   <poly color="red" fill="1" id="163641899" layer="-1.00" shape="18.53,364.26 10.91,354.57 9.03,371.68 18.53,364.26" type="building"/>
   <poly color="red" fill="1" id="163641901" layer="-1.00" shape="301.32,149.91 303.32,137.14 295.94,135.98 294.85,141.75 281.01,132.96 277.66,139.11 293.02,148.16 301.32,149.91" type="building"/>
   <poly color="red" fill="1" id="163641907" layer="-1.00" shape="108.38,92.27 104.67,93.61 103.45,90.24 95.49,93.10 93.62,93.77 93.84,94.35 98.02,105.94 111.56,101.07 108.38,92.27" type="building"/>
   <poly color="red" fill="1" id="163754609" layer="-1.00" shape="124.71,287.44 107.95,278.03 102.92,286.93 110.84,291.38 110.11,292.65 110.29,293.76 111.45,294.40 115.39,296.62 116.78,294.16 119.91,295.92 124.71,287.44" type="building"/>
   <poly color="237,199,199" fill="1" id="163754615" layer="-1.00" shape="128.33,317.82 135.59,304.97 133.82,303.97 131.17,302.48 128.71,301.10 130.54,297.86 131.21,296.69 135.00,289.98 133.85,289.33 135.02,287.25 128.20,283.42 126.96,285.62 126.04,285.10 124.71,287.44 119.91,295.92 113.43,307.40 112.56,308.95 128.33,317.82" type="amenity"/>
   <poly color="red" fill="1" id="163754615#1" layer="-1.00" shape="128.33,317.82 135.59,304.97 133.82,303.97 131.17,302.48 128.71,301.10 130.54,297.86 131.21,296.69 135.00,289.98 133.85,289.33 135.02,287.25 128.20,283.42 126.96,285.62 126.04,285.10 124.71,287.44 119.91,295.92 113.43,307.40 112.56,308.95 128.33,317.82" type="building"/>
   <poly color="red" fill="1" id="163754619" layer="-1.00" shape="-0.46,103.79" type="building"/>
   <poly color="red" fill="1" id="163754620" layer="-1.00" shape="106.35,303.43 105.48,304.98 111.26,308.23 112.14,306.68 106.35,303.43" type="building"/>
   <poly color="red" fill="1" id="163754621" layer="-1.00" shape="86.70,262.82 110.08,247.15 106.77,242.24 83.39,257.91 86.70,262.82" type="building"/>
   <poly color="red" fill="1" id="163754631" layer="-1.00" shape="89.46,53.75 85.76,49.44 76.46,57.40 80.16,61.71 89.46,53.75" type="building"/>
   <poly color="red" fill="1" id="163754632" layer="-1.00" shape="87.12,333.40 81.94,332.83 75.38,392.13 80.57,392.69 87.12,333.40" type="building"/>
   <poly color="red" fill="1" id="163754640" layer="-1.00" shape="128.34,152.07 124.14,138.03 76.99,152.07 81.19,166.09 128.34,152.07" type="building"/>
   <poly color="red" fill="1" id="163754650" layer="-1.00" shape="87.22,332.49 87.12,333.40 80.57,392.69 80.46,393.66 92.16,394.95 98.93,333.77 87.22,332.49" type="building"/>
   <poly color="red" fill="1" id="163754655" layer="-1.00" shape="133.82,303.97 136.23,299.63 131.21,296.69 130.54,297.86 133.00,299.20 131.17,302.48 133.82,303.97" type="building"/>
   <poly color="red" fill="1" id="163754656" layer="-1.00" shape="6.77,272.85" type="building"/>
   <poly color="red" fill="1" id="163754661" layer="-1.00" shape="111.45,294.40 106.35,303.43 112.14,306.68 113.43,307.40 119.91,295.92 116.78,294.16 115.39,296.62 111.45,294.40" type="building"/>
   <poly color="red" fill="1" id="163754663" layer="-1.00" shape="65.38,249.85 68.45,253.41 70.76,251.43 76.11,257.60 82.94,251.72 77.04,244.88 74.22,247.32 71.70,244.41 65.38,249.85" type="building"/>
   <poly color="red" fill="1" id="164255508" layer="-1.00" shape="38.80,109.49 36.10,97.33 23.53,100.12 26.24,112.27 38.80,109.49" type="building"/>
   <poly color="red" fill="1" id="164255511" layer="-1.00" shape="15.06,247.34 19.73,243.77 14.33,236.63 9.61,240.23 15.06,247.34" type="building"/>
   <poly color="red" fill="1" id="164255512" layer="-1.00" shape="60.78,115.75 59.51,109.77 49.99,111.78 51.25,117.75 60.78,115.75" type="building"/>
   <poly color="red" fill="1" id="164255513" layer="-1.00" shape="331.25,110.27 329.92,115.10 336.53,116.91 337.86,112.08 331.25,110.27" type="building"/>
   <poly color="red" fill="1" id="164255532" layer="-1.00" shape="331.38,95.74 327.95,107.45 344.51,112.26 347.93,100.55 331.38,95.74" type="building"/>
   <poly color="red" fill="1" id="164255533" layer="-1.00" shape="344.51,112.26 347.47,113.11 350.89,101.40 347.93,100.55 344.51,112.26" type="building"/>
   <poly color="red" fill="1" id="164255534" layer="-1.00" shape="21.01,88.76 23.53,100.12 36.10,97.33 33.57,85.97 21.01,88.76" type="building"/>
   <poly color="red" fill="1" id="164255535" layer="-1.00" shape="31.04,74.62 50.75,70.25 49.43,64.27 24.98,69.69 26.32,75.67 31.04,74.62" type="building"/>
   <poly color="red" fill="1" id="164255540" layer="-1.00" shape="35.94,57.50 36.58,60.41 47.83,57.95 46.50,51.93 40.74,53.18 41.43,56.30 35.94,57.50" type="building"/>
   <poly color="red" fill="1" id="164255544" layer="-1.00" shape="4.89,224.14" type="building"/>
   <poly color="red" fill="1" id="164389511" layer="-1.00" shape="63.07,95.76 65.91,108.42 78.23,105.67 75.38,93.01 63.07,95.76" type="building"/>
   <poly color="red" fill="1" id="164389526" layer="-1.00" shape="0.83,61.02 -1.62,61.58 -0.27,67.36 10.71,64.82 9.37,59.04 0.83,61.02" type="building"/>
   <poly color="red" fill="1" id="164389529" layer="-1.00" shape="29.84,32.93 20.84,42.25 24.83,46.09 34.97,35.58 31.75,32.50 29.84,32.93" type="building"/>
   <poly color="red" fill="0" id="164389532" layer="-1.00" shape="29.84,32.93 31.75,32.50 41.57,30.29" type="building"/>
   <poly color="red" fill="1" id="164389534" layer="-1.00" shape="-2.46,46.83 0.83,61.02 9.37,59.04 12.27,58.37 8.98,44.19 -2.46,46.83" type="building"/>
   <poly color="red" fill="1" id="164389535" layer="-1.00" shape="-1.19,193.28 10.88,186.80 1.30,174.22 -0.85,175.83 -1.19,193.28" type="building"/>
   <poly color="red" fill="1" id="164389536" layer="-1.00" shape="69.76,67.99 67.00,55.63 54.68,58.38 57.45,70.74 69.76,67.99" type="building"/>
   <poly color="red" fill="1" id="164389539" layer="-1.00" shape="0.66,119.59" type="building"/>
   <poly color="red" fill="1" id="164389541" layer="-1.00" shape="57.57,44.76 64.22,43.28 70.07,41.97 68.77,36.18 56.27,38.98 57.57,44.76" type="building"/>
   <poly color="red" fill="0" id="164389542" layer="-1.00" shape="-2.46,46.83 8.98,44.19 10.36,43.87" type="building"/>
   <poly color="red" fill="1" id="164389543" layer="-1.00" shape="-0.85,175.83" type="building"/>
   <poly color="red" fill="1" id="164389547" layer="-1.00" shape="6.05,170.97 11.77,178.94 12.58,178.37 16.99,184.50 21.58,182.85 10.68,167.66 6.05,170.97" type="building"/>
   <poly color="red" fill="0" id="164389548" layer="-1.00" shape="-0.89,159.95 0.32,159.04 2.37,161.72 6.02,159.51 3.49,149.49" type="building"/>
   <poly color="red" fill="1" id="164389554" layer="-1.00" shape="65.91,108.42 65.04,108.62 66.36,114.51 87.64,109.75 86.32,103.86 78.23,105.67 65.91,108.42" type="building"/>
   <poly color="red" fill="0" id="164389565" layer="-1.00" shape="-1.30,170.72 5.38,165.65 2.37,161.72 0.32,159.04 -0.89,159.95" type="building"/>
   <poly color="red" fill="1" id="164533894" layer="-1.00" shape="408.77,910.96 419.24,918.60 453.93,871.31 443.46,863.68 408.77,910.96" type="building"/>
   <poly color="red" fill="1" id="164533898" layer="-1.00" shape="904.38,777.29 909.10,793.08 919.56,789.97 914.84,774.18 904.38,777.29" type="building"/>
   <poly color="red" fill="1" id="164533915" layer="-1.00" shape="899.65,761.50 904.38,777.29 914.84,774.18 910.11,758.38 899.65,761.50" type="building"/>
   <poly color="red" fill="1" id="164533921" layer="-1.00" shape="910.11,758.38 905.38,742.59 894.93,745.70 899.65,761.50 910.11,758.38" type="building"/>
   <poly color="red" fill="1" id="164533924" layer="-1.00" shape="5.55,242.04 1.82,257.43 15.06,247.34 9.61,240.23 5.55,242.04" type="building"/>
   <poly color="red" fill="1" id="164570597" layer="-1.00" shape="369.05,897.34 375.25,901.72 377.81,898.12 383.19,901.92 386.09,897.86 374.52,889.66 369.05,897.34" type="building"/>
   <poly color="red" fill="1" id="164646144" layer="-1.00" shape="690.73,808.04 686.15,808.01 686.16,806.61 687.13,806.61 687.83,806.61 687.84,805.90 687.87,800.50 683.06,800.47 683.03,803.86 682.93,818.83 690.65,818.87 690.73,808.04" type="building"/>
   <poly color="red" fill="1" id="164646145" layer="-1.00" shape="840.85,921.46 861.83,912.66 852.53,914.38 854.94,927.24 851.69,927.84 850.16,919.72 840.85,921.46" type="building"/>
   <poly color="red" fill="1" id="164646147" layer="-1.00" shape="823.96,800.32 829.52,793.76 830.14,794.39 833.34,791.26 828.84,786.67 832.27,783.33 819.20,770.00 818.27,770.92 815.72,768.32 816.67,767.39 812.18,762.80 810.22,764.71 809.28,763.75 804.43,768.48 805.51,769.60 799.47,775.49 802.19,778.26 800.71,779.70 804.93,784.00 806.51,782.46 809.13,785.13 807.48,786.74 811.90,791.26 813.51,789.68 816.16,792.37 814.55,793.94 818.99,798.47 820.60,796.90 823.96,800.32" type="building"/>
   <poly color="red" fill="1" id="164646148" layer="-1.00" shape="703.12,757.66 708.33,755.89 705.11,746.46 699.90,748.23 703.12,757.66" type="building"/>
   <poly color="red" fill="1" id="164646151" layer="-1.00" shape="912.11,907.08 908.95,889.99 899.41,891.75 902.58,908.84 912.11,907.08" type="building"/>
   <poly color="red" fill="1" id="164646152" layer="-1.00" shape="949.44,740.95 944.86,743.09 948.05,749.93 952.64,747.80 949.44,740.95" type="building"/>
   <poly color="red" fill="1" id="164646156" layer="-1.00" shape="828.10,931.35" type="building"/>
   <poly color="red" fill="1" id="164646157" layer="-1.00" shape="929.22,708.53 925.75,711.17 932.01,719.34 935.48,716.70 929.22,708.53" type="building"/>
   <poly color="red" fill="1" id="164646158" layer="-1.00" shape="673.05,732.77 694.93,725.89 691.24,714.16 669.35,721.03 673.05,732.77" type="building"/>
   <poly color="red" fill="1" id="164646159" layer="-1.00" shape="824.79,923.77 820.16,913.09 806.61,918.94 811.24,929.62 824.79,923.77" type="building"/>
   <poly color="red" fill="1" id="164646160" layer="-1.00" shape="949.07,900.02 945.75,883.01 935.73,884.95 939.04,901.97 949.07,900.02" type="building"/>
   <poly color="red" fill="1" id="164646161" layer="-1.00" shape="913.04,924.69 915.30,924.27 912.11,907.08 902.58,908.84 905.77,926.03 913.04,924.69" type="building"/>
   <poly color="red" fill="1" id="164646164" layer="-1.00" shape="939.04,901.97 942.37,919.00 950.00,917.51 952.38,917.05 949.07,900.02 939.04,901.97" type="building"/>
   <poly color="red" fill="1" id="164646165" layer="-1.00" shape="942.37,919.00 940.00,919.46 950.00,917.51 942.37,919.00" type="building"/>
   <poly color="red" fill="1" id="164646167" layer="-1.00" shape="905.77,926.03 903.51,926.45 913.04,924.69 905.77,926.03" type="building"/>
   <poly color="red" fill="1" id="164646169" layer="-1.00" shape="668.11,808.11 666.08,808.10 666.11,803.87 662.82,803.85 662.71,818.69 668.04,818.72 668.11,808.11" type="building"/>
   <poly color="red" fill="1" id="164646170" layer="-1.00" shape="668.04,818.72 673.19,818.76 673.29,803.76 670.05,803.73 670.03,808.13 668.11,808.11 668.04,818.72" type="building"/>
   <poly color="red" fill="1" id="164646171" layer="-1.00" shape="662.82,803.85 659.98,803.83 659.96,807.74 653.80,807.70 657.53,818.65 662.71,818.69 662.82,803.85" type="building"/>
   <poly color="red" fill="1" id="164646173" layer="-1.00" shape="678.11,807.88 676.40,807.87 676.44,803.77 673.29,803.76 673.19,818.76 678.04,818.79 678.11,807.88" type="building"/>
   <poly color="red" fill="1" id="164646174" layer="-1.00" shape="690.65,818.87 696.19,818.91 696.25,810.10 695.81,810.10 695.83,808.07 690.73,808.04 690.65,818.87" type="building"/>
   <poly color="red" fill="1" id="164646176" layer="-1.00" shape="952.64,747.80 948.05,749.93 943.07,752.25 950.99,769.22 952.64,747.80" type="building"/>
   <poly color="red" fill="1" id="164646177" layer="-1.00" shape="678.04,818.79 682.93,818.83 683.03,803.86 679.90,803.84 679.87,807.89 678.11,807.88 678.04,818.79" type="building"/>
   <poly color="red" fill="1" id="164646178" layer="-1.00" shape="815.98,862.68 827.81,890.14 838.01,885.77 832.86,873.83 835.97,872.49 834.60,869.30 831.32,870.70 826.01,858.38 815.98,862.68" type="building"/>
   <poly color="red" fill="1" id="164646179" layer="-1.00" shape="695.54,765.55 702.07,763.47 696.42,745.79 695.12,746.21 694.76,745.08 690.81,746.34 691.15,747.40 689.87,747.80 695.54,765.55" type="building"/>
   <poly color="red" fill="1" id="164646180" layer="-1.00" shape="26.24,112.27 28.94,124.42 41.50,121.64 38.80,109.49 26.24,112.27" type="building"/>
   <poly color="red" fill="1" id="164646186" layer="-1.00" shape="75.38,93.01 72.54,80.34 60.23,83.09 63.07,95.76 75.38,93.01" type="building"/>
   <poly color="red" fill="1" id="164646188" layer="-1.00" shape="57.45,70.74 60.23,83.09 72.54,80.34 69.76,67.99 57.45,70.74" type="building"/>
   <poly color="red" fill="0" id="164646189" layer="-1.00" shape="5.55,242.04 9.61,240.23 14.33,236.63 4.89,224.14" type="building"/>
   <poly color="red" fill="1" id="164646190" layer="-1.00" shape="67.00,55.63 64.22,43.28 57.57,44.76 51.91,46.03 54.68,58.38 67.00,55.63" type="building"/>
   <poly color="red" fill="1" id="164646191" layer="-1.00" shape="33.57,85.97 31.04,74.62 26.32,75.67 18.48,77.40 21.01,88.76 33.57,85.97" type="building"/>
   <poly color="237,199,199" fill="1" id="164646192" layer="-1.00" shape="762.82,797.58 819.66,809.39 820.55,808.65 823.56,805.48 838.59,791.28 845.07,789.40 841.55,785.66 829.55,773.70 819.79,764.63 818.21,756.81 806.31,760.30 762.82,797.58" type="amenity"/>
   <poly color="red" fill="1" id="164672665" layer="-1.00" shape="179.77,130.41 175.35,134.82 177.94,137.35 182.72,133.59 179.77,130.41" type="building"/>
   <poly color="red" fill="1" id="164672666" layer="-1.00" shape="144.16,145.06 141.29,147.46 146.64,153.85 149.51,151.47 144.16,145.06" type="building"/>
   <poly color="red" fill="1" id="164672668" layer="-1.00" shape="108.81,79.19 107.28,75.66 104.61,76.82 106.14,80.35 108.81,79.19" type="building"/>
   <poly color="red" fill="1" id="164672669" layer="-1.00" shape="176.64,151.97 170.67,144.73 152.02,160.03 158.00,167.27 176.64,151.97" type="building"/>
   <poly color="red" fill="1" id="164672670" layer="-1.00" shape="182.72,133.59 188.28,127.74 181.96,121.59 176.60,127.42 179.77,130.41 182.72,133.59" type="building"/>
   <poly color="red" fill="1" id="164672671" layer="-1.00" shape="185.83,144.24 185.86,148.43 189.88,148.32 190.18,143.07 187.20,143.09 185.83,144.24" type="building"/>
   <poly color="red" fill="1" id="164672672" layer="-1.00" shape="181.96,121.59 175.39,116.08 169.45,118.86 172.69,123.10 176.60,127.42 181.96,121.59" type="building"/>
   <poly color="red" fill="1" id="164672673" layer="-1.00" shape="187.20,143.09 190.18,143.07 190.32,140.46 191.00,128.52 170.67,144.73 176.64,151.97 185.83,144.24 187.20,143.09" type="building"/>
   <poly color="red" fill="1" id="164672674" layer="-1.00" shape="175.39,116.08 177.80,114.95 173.64,106.12 169.17,108.20 166.53,102.60 162.65,104.42 169.45,118.86 175.39,116.08" type="building"/>