<?xml version="1.0" encoding="utf-8"?><!-- generated on 10/11/17 17:49:16 by SUMO netconvert Version 0.25.0
<?xml version="1.0" encoding="UTF-8"?>

<configuration xmlns:xsi="http://www.w3.org/2001/XMLSchema-instance" xsi:noNamespaceSchemaLocation="http://sumo.dlr.de/xsd/netconvertConfiguration.xsd">

    <input>
        <type-files value="osmNetconvert.typ.xml"/>
        <osm-files value="AC_RotheErde_industrial_800.osm"/>
    </input>

    <output>
        <output-file value="AC_RotheErde_industrial_800.net.xml"/>
    </output>

    <projection>
        <proj.utm value="true"/>
    </projection>

    <edge_removal>
        <remove-edges.by-type value="highway.track,highway.unsurfaced,highway.raceway,highway.bridleway,highway.path,highway.footway,highway.pedestrian,highway.cycleway,highway.step,highway.steps,highway.stairs,highway.bus_guideway,highway.ford,railway.rail,railway.tram,railway.light_rail,railway.subway,railway.preserved,railway.narrow_gauge,railway.monorail,railway.funicular"/>
    </edge_removal>

</configuration>
-->
<net version="0.25">
   <location convBoundary="0.00,0.00,956.33,960.58" netOffset="-297337.94,-5628090.76" origBoundary="6.125765,50.769408,6.138996,50.777779" projParameter="+proj=utm +zone=32 +ellps=WGS84 +datum=WGS84 +units=m +no_defs"/>
   <type allow="pedestrian" id="highway.bridleway" numLanes="1" oneway="1" priority="1" speed="2.78" width="2.00"/>
   <type allow="bus" id="highway.bus_guideway" numLanes="1" oneway="1" priority="1" speed="8.33"/>
   <type allow="bicycle" id="highway.cycleway" numLanes="1" oneway="0" priority="1" speed="5.56" width="1.00"/>
   <type allow="pedestrian" id="highway.footway" numLanes="1" oneway="1" priority="1" speed="8.33" width="2.00"/>
   <type allow="army" id="highway.ford" numLanes="1" oneway="0" priority="1" speed="2.78"/>
   <type disallow="tram rail_urban rail rail_electric ship" id="highway.living_street" numLanes="1" oneway="0" priority="3" speed="2.78"/>
   <type allow="private emergency authority army vip passenger hov taxi bus coach delivery truck trailer motorcycle evehicle custom1 custom2" id="highway.motorway" numLanes="2" oneway="1" priority="13" speed="44.44"/>
   <type allow="private emergency authority army vip passenger hov taxi bus coach delivery truck trailer motorcycle evehicle custom1 custom2" id="highway.motorway_link" numLanes="1" oneway="1" priority="12" speed="22.22"/>
   <type allow="bicycle pedestrian" id="highway.path" numLanes="1" oneway="1" priority="1" speed="2.78" width="2.00"/>
   <type allow="pedestrian" id="highway.pedestrian" numLanes="1" oneway="1" priority="1" speed="8.33" width="2.00"/>
   <type disallow="tram rail_urban rail rail_electric ship" id="highway.primary" numLanes="2" oneway="0" priority="9" speed="27.78"/>
   <type disallow="tram rail_urban rail rail_electric ship" id="highway.primary_link" numLanes="1" oneway="0" priority="8" speed="22.22"/>
   <type allow="vip" id="highway.raceway" numLanes="2" oneway="0" priority="14" speed="83.33"/>
   <type disallow="tram rail_urban rail rail_electric ship" id="highway.residential" numLanes="1" oneway="0" priority="4" speed="13.89"/>
   <type disallow="tram rail_urban rail rail_electric ship" id="highway.secondary" numLanes="2" oneway="0" priority="7" speed="27.78"/>
   <type disallow="tram rail_urban rail rail_electric ship" id="highway.secondary_link" numLanes="1" oneway="0" priority="6" speed="22.22"/>
   <type allow="delivery bicycle pedestrian" id="highway.service" numLanes="1" oneway="0" priority="2" speed="5.56"/>
   <type disallow="tram rail_urban rail rail_electric ship" id="highway.services" numLanes="1" oneway="0" priority="1" speed="8.33"/>
   <type allow="pedestrian" id="highway.stairs" numLanes="1" oneway="1" priority="1" speed="1.39" width="2.00"/>
   <type allow="pedestrian" id="highway.step" numLanes="1" oneway="1" priority="1" speed="1.39" width="2.00"/>
   <type allow="pedestrian" id="highway.steps" numLanes="1" oneway="1" priority="1" speed="1.39" width="2.00"/>
   <type disallow="tram rail_urban rail rail_electric ship" id="highway.tertiary" numLanes="1" oneway="0" priority="6" speed="22.22"/>
   <type disallow="tram rail_urban rail rail_electric ship" id="highway.tertiary_link" numLanes="1" oneway="0" priority="5" speed="22.22"/>
   <type disallow="tram rail_urban rail rail_electric ship" id="highway.track" numLanes="1" oneway="0" priority="1" speed="5.56"/>
   <type disallow="tram rail_urban rail rail_electric bicycle pedestrian ship" id="highway.trunk" numLanes="2" oneway="0" priority="11" speed="27.78"/>
   <type disallow="tram rail_urban rail rail_electric bicycle pedestrian ship" id="highway.trunk_link" numLanes="1" oneway="0" priority="10" speed="22.22"/>
   <type disallow="tram rail_urban rail rail_electric ship" id="highway.unclassified" numLanes="1" oneway="0" priority="5" speed="13.89"/>
   <type disallow="tram rail_urban rail rail_electric ship" id="highway.unsurfaced" numLanes="1" oneway="0" priority="1" speed="8.33"/>
   <type allow="rail_urban" id="railway.light_rail" numLanes="1" oneway="1" priority="15" speed="27.78"/>
   <type allow="rail" id="railway.preserved" numLanes="1" oneway="1" priority="15" speed="27.78"/>
   <type allow="rail rail_electric" id="railway.rail" numLanes="1" oneway="1" priority="15" speed="83.33"/>
   <type allow="rail_urban" id="railway.subway" numLanes="1" oneway="1" priority="15" speed="27.78"/>
   <type allow="tram" id="railway.tram" numLanes="1" oneway="1" priority="15" speed="13.89"/>
   <edge function="internal" id=":110530138_0">
      <lane disallow="tram rail_urban rail rail_electric ship" id=":110530138_0_0" index="0" length="0.10" shape="225.13,377.25 225.13,377.25" speed="13.89"/>
   </edge>
   <edge function="internal" id=":110530138_1">
      <lane disallow="tram rail_urban rail rail_electric ship" id=":110530138_1_0" index="0" length="2.41" shape="225.13,377.25 223.70,376.84 223.05,376.18" speed="13.89"/>
   </edge>
   <edge function="internal" id=":110530138_5">
      <lane id=":110530138_5_0" index="0" length="2.41" shape="223.05,376.18 223.20,375.27 224.12,374.11" speed="13.89"/>
   </edge>
   <edge function="internal" id=":110530138_2">
      <lane disallow="tram rail_urban rail rail_electric ship" id=":110530138_2_0" index="0" length="0.10" shape="223.12,370.96 223.11,370.97" speed="13.89"/>
      <lane disallow="tram rail_urban rail rail_electric ship" id=":110530138_2_1" index="1" length="0.10" shape="224.12,374.11 224.12,374.11" speed="13.89"/>
   </edge>
   <edge function="internal" id=":110530138_4">
      <lane disallow="tram rail_urban rail rail_electric ship" id=":110530138_4_0" index="0" length="2.41" shape="224.12,374.11 225.55,374.52 226.20,375.18" speed="13.89"/>
   </edge>
   <edge function="internal" id=":110530138_6">
      <lane id=":110530138_6_0" index="0" length="2.41" shape="226.20,375.18 226.06,376.09 225.13,377.25" speed="13.89"/>
   </edge>
   <edge function="internal" id=":114310393_0">
      <lane disallow="tram rail_urban rail rail_electric ship" id=":114310393_0_0" index="0" length="4.82" shape="55.21,28.04 56.60,27.51 57.51,27.66 57.94,28.48 57.88,29.96" speed="13.89"/>
   </edge>
   <edge function="internal" id=":114310395_0">
      <lane allow="delivery bicycle pedestrian" id=":114310395_0_0" index="0" length="6.34" shape="9.86,83.73 5.82,78.85" speed="9.73"/>
   </edge>
   <edge function="internal" id=":114310395_1">
      <lane disallow="tram rail_urban rail rail_electric ship" id=":114310395_1_0" index="0" length="8.63" shape="9.86,83.73 12.14,75.41" speed="13.89"/>
   </edge>
   <edge function="internal" id=":114310395_2">
      <lane disallow="tram rail_urban rail rail_electric ship" id=":114310395_2_0" index="0" length="3.06" shape="9.86,83.73 10.42,82.35 11.14,81.78 11.76,81.95" speed="13.89"/>
   </edge>
   <edge function="internal" id=":114310395_9">
      <lane id=":114310395_9_0" index="0" length="1.76" shape="11.76,81.95 12.03,82.02 13.09,83.07" speed="13.89"/>
   </edge>
   <edge function="internal" id=":114310395_3">
      <lane disallow="tram rail_urban rail rail_electric ship" id=":114310395_3_0" index="0" length="6.26" shape="14.98,77.10 13.09,83.07" speed="13.89"/>
   </edge>
   <edge function="internal" id=":114310395_4">
      <lane allow="delivery bicycle pedestrian" id=":114310395_4_0" index="0" length="3.54" shape="14.98,77.10 13.06,79.47 12.63,79.69" speed="9.73"/>
   </edge>
   <edge function="internal" id=":114310395_5">
      <lane disallow="tram rail_urban rail rail_electric ship" id=":114310395_5_0" index="0" length="1.95" shape="14.98,77.10 13.63,77.74 13.17,77.71" speed="13.89"/>
   </edge>
   <edge function="internal" id=":114310395_10">
      <lane id=":114310395_10_0" index="0" length="7.41" shape="12.63,79.69 10.89,80.56 8.48,80.35 5.82,78.85" speed="9.73"/>
   </edge>
   <edge function="internal" id=":114310395_11">
      <lane id=":114310395_11_0" index="0" length="2.87" shape="13.17,77.71 12.72,77.67 12.22,76.90 12.14,75.41" speed="13.89"/>
   </edge>
   <edge function="internal" id=":114310395_6">
      <lane disallow="tram rail_urban rail rail_electric ship" id=":114310395_6_0" index="0" length="5.15" shape="7.83,76.24 9.08,76.94 10.22,77.04 11.24,76.53 12.14,75.41" speed="9.73"/>
   </edge>
   <edge function="internal" id=":114310395_7">
      <lane disallow="tram rail_urban rail rail_electric ship" id=":114310395_7_0" index="0" length="8.62" shape="7.83,76.24 13.09,83.07" speed="9.73"/>
   </edge>
   <edge function="internal" id=":114310395_8">
      <lane allow="delivery bicycle pedestrian" id=":114310395_8_0" index="0" length="4.82" shape="7.83,76.24 8.31,77.65 8.13,78.55 7.30,78.95 5.82,78.85" speed="5.56"/>
   </edge>
   <edge function="internal" id=":114310396_0">
      <lane disallow="tram rail_urban rail rail_electric ship" id=":114310396_0_0" index="0" length="13.26" shape="27.94,138.96 25.01,139.01 22.63,137.67 20.80,134.94 19.53,130.82" speed="11.11"/>
   </edge>
   <edge function="internal" id=":114310396_1">
      <lane disallow="tram rail_urban rail rail_electric ship" id=":114310396_1_0" index="0" length="4.82" shape="27.94,138.96 26.55,138.43 25.96,137.72 26.18,136.83 27.20,135.74" speed="8.33"/>
   </edge>
   <edge function="internal" id=":114310396_2">
      <lane disallow="tram rail_urban rail rail_electric ship" id=":114310396_2_0" index="0" length="6.47" shape="22.77,130.16 23.23,131.46 24.01,132.29 25.08,132.64 26.46,132.53" speed="11.11"/>
      <lane disallow="tram rail_urban rail rail_electric ship" id=":114310396_2_1" index="1" length="6.47" shape="22.77,130.16 23.53,132.87 24.52,134.71 25.75,135.67 27.20,135.74" speed="11.11"/>
   </edge>
   <edge function="internal" id=":114310396_4">
      <lane disallow="tram rail_urban rail rail_electric ship" id=":114310396_4_0" index="0" length="4.82" shape="22.77,130.16 22.21,131.54 21.48,132.11 20.59,131.87 19.53,130.82" speed="13.89"/>
   </edge>
   <edge function="internal" id=":114310398_0">
      <lane disallow="tram rail_urban rail rail_electric ship" id=":114310398_0_0" index="0" length="5.17" shape="119.93,115.95 119.46,114.58 118.67,113.76 117.57,113.47 116.15,113.73" speed="6.95"/>
   </edge>
   <edge function="internal" id=":114310398_1">
      <lane disallow="tram rail_urban rail rail_electric ship" id=":114310398_1_0" index="0" length="10.31" shape="119.93,115.95 119.72,112.99 120.31,110.59 121.72,108.75 123.94,107.47" speed="6.95"/>
   </edge>
   <edge function="internal" id=":114310398_2">
      <lane allow="delivery bicycle pedestrian" id=":114310398_2_0" index="0" length="4.82" shape="119.93,115.95 120.51,114.58 121.24,114.02 122.13,114.27 123.17,115.33" speed="5.56"/>
   </edge>
   <edge function="internal" id=":114310398_3">
      <lane allow="delivery bicycle pedestrian" id=":114310398_3_0" index="0" length="5.65" shape="125.11,110.56 123.99,111.23 123.30,112.26 123.02,113.62 123.17,115.33" speed="6.95"/>
   </edge>
   <edge function="internal" id=":114310398_4">
      <lane disallow="tram rail_urban rail rail_electric ship" id=":114310398_4_0" index="0" length="9.51" shape="125.11,110.56 116.15,113.73" speed="8.33"/>
   </edge>
   <edge function="internal" id=":114310398_5">
      <lane disallow="tram rail_urban rail rail_electric ship" id=":114310398_5_0" index="0" length="2.41" shape="125.11,110.56 123.66,110.23 122.98,109.60" speed="8.33"/>
   </edge>
   <edge function="internal" id=":114310398_10">
      <lane id=":114310398_10_0" index="0" length="2.41" shape="122.98,109.60 123.07,108.68 123.94,107.47" speed="8.33"/>
   </edge>
   <edge function="internal" id=":114310398_6">
      <lane disallow="tram rail_urban rail rail_electric ship" id=":114310398_6_0" index="0" length="9.30" shape="114.06,107.46 122.77,104.39" speed="8.33"/>
      <lane disallow="tram rail_urban rail rail_electric ship" id=":114310398_6_1" index="1" length="9.30" shape="115.11,110.60 123.94,107.47" speed="8.33"/>
   </edge>
   <edge function="internal" id=":114310398_8">
      <lane allow="delivery bicycle pedestrian" id=":114310398_8_0" index="0" length="5.23" shape="115.11,110.60 118.14,110.05 120.22,110.59" speed="6.95"/>
   </edge>
   <edge function="internal" id=":114310398_9">
      <lane disallow="tram rail_urban rail rail_electric ship" id=":114310398_9_0" index="0" length="2.41" shape="115.11,110.60 116.54,110.99 117.19,111.64" speed="8.33"/>
   </edge>
   <edge function="internal" id=":114310398_11">
      <lane id=":114310398_11_0" index="0" length="5.79" shape="120.22,110.59 120.49,110.66 122.17,112.42 123.17,115.33" speed="6.95"/>
   </edge>
   <edge function="internal" id=":114310398_12">
      <lane id=":114310398_12_0" index="0" length="2.41" shape="117.19,111.64 117.06,112.55 116.15,113.73" speed="8.33"/>
   </edge>
   <edge function="internal" id=":117566394_0">
      <lane disallow="tram rail_urban rail rail_electric ship" id=":117566394_0_0" index="0" length="8.61" shape="824.44,905.16 821.30,897.14" speed="11.11"/>
   </edge>
   <edge function="internal" id=":117566394_1">
      <lane disallow="tram rail_urban rail rail_electric ship" id=":117566394_1_0" index="0" length="4.61" shape="824.44,905.16 824.03,902.38 824.48,900.64" speed="11.11"/>
   </edge>
   <edge function="internal" id=":117566394_2">
      <lane disallow="tram rail_urban rail rail_electric ship" id=":117566394_2_0" index="0" length="2.30" shape="824.44,905.16 824.88,903.74 825.47,903.18" speed="13.89"/>
   </edge>
   <edge function="internal" id=":117566394_9">
      <lane id=":117566394_9_0" index="0" length="5.67" shape="824.48,900.64 824.61,900.12 826.18,898.40 828.73,897.22" speed="11.11"/>
   </edge>
   <edge function="internal" id=":117566394_10">
      <lane id=":117566394_10_0" index="0" length="2.52" shape="825.47,903.18 825.55,903.11 826.46,903.27 827.60,904.23" speed="13.89"/>
   </edge>
   <edge function="internal" id=":117566394_3">
      <lane disallow="tram rail_urban rail rail_electric ship" id=":117566394_3_0" index="0" length="4.99" shape="829.68,900.37 828.45,900.95 827.69,901.79 827.41,902.88 827.60,904.23" speed="11.11"/>
   </edge>
   <edge function="internal" id=":117566394_4">
      <lane disallow="tram rail_urban rail rail_electric ship" id=":117566394_4_0" index="0" length="9.89" shape="829.68,900.37 826.97,900.84 824.67,900.45 822.78,899.22 821.30,897.14" speed="8.33"/>
   </edge>
   <edge function="internal" id=":117566394_5">
      <lane disallow="tram rail_urban rail rail_electric ship" id=":117566394_5_0" index="0" length="4.82" shape="829.68,900.37 828.26,899.94 827.63,899.27 827.78,898.36 828.73,897.22" speed="8.33"/>
   </edge>
   <edge function="internal" id=":117566394_6">
      <lane disallow="tram rail_urban rail rail_electric ship" id=":117566394_6_0" index="0" length="5.22" shape="824.25,895.65 825.01,896.70 826.01,897.31 827.25,897.48 828.73,897.22" speed="8.33"/>
   </edge>
   <edge function="internal" id=":117566394_7">
      <lane disallow="tram rail_urban rail rail_electric ship" id=":117566394_7_0" index="0" length="9.21" shape="824.25,895.65 827.60,904.23" speed="11.11"/>
   </edge>
   <edge function="internal" id=":117566394_8">
      <lane disallow="tram rail_urban rail rail_electric ship" id=":117566394_8_0" index="0" length="2.63" shape="824.25,895.65 824.07,897.13 823.52,897.87 823.31,897.87" speed="8.33"/>
   </edge>
   <edge function="internal" id=":117566394_11">
      <lane id=":117566394_11_0" index="0" length="2.19" shape="823.31,897.87 822.60,897.87 821.30,897.14" speed="8.33"/>
   </edge>
   <edge function="internal" id=":117566401_0">
      <lane disallow="tram rail_urban rail rail_electric ship" id=":117566401_0_0" index="0" length="5.00" shape="803.06,855.85 802.75,854.49 802.12,853.49 801.19,852.83 799.94,852.53" speed="11.11"/>
   </edge>
   <edge function="internal" id=":117566401_1">
      <lane disallow="tram rail_urban rail rail_electric ship" id=":117566401_1_0" index="0" length="9.83" shape="803.06,855.85 803.16,853.19 804.06,851.13 805.76,849.65 808.26,848.75" speed="11.11"/>
   </edge>
   <edge function="internal" id=":117566401_2">
      <lane disallow="tram rail_urban rail rail_electric ship" id=":117566401_2_0" index="0" length="4.82" shape="803.06,855.85 803.76,854.54 804.53,854.04 805.40,854.37 806.35,855.51" speed="8.33"/>
   </edge>
   <edge function="internal" id=":117566401_3">
      <lane disallow="tram rail_urban rail rail_electric ship" id=":117566401_3_0" index="0" length="4.88" shape="808.93,851.98 807.69,852.43 806.84,853.16 806.39,854.19 806.35,855.51" speed="11.11"/>
   </edge>
   <edge function="internal" id=":117566401_4">
      <lane disallow="tram rail_urban rail rail_electric ship" id=":117566401_4_0" index="0" length="9.00" shape="808.93,851.98 799.94,852.53" speed="13.89"/>
   </edge>
   <edge function="internal" id=":117566401_5">
      <lane disallow="tram rail_urban rail rail_electric ship" id=":117566401_5_0" index="0" length="2.69" shape="808.93,851.98 807.55,851.43 806.98,850.70 807.05,850.43" speed="13.89"/>
   </edge>
   <edge function="internal" id=":117566401_9">
      <lane id=":117566401_9_0" index="0" length="2.13" shape="807.05,850.43 807.22,849.81 808.26,848.75" speed="13.89"/>
   </edge>
   <edge function="internal" id=":117566401_6">
      <lane disallow="tram rail_urban rail rail_electric ship" id=":117566401_6_0" index="0" length="8.04" shape="800.24,849.24 808.26,848.75" speed="13.89"/>
   </edge>
   <edge function="internal" id=":117566401_7">
      <lane disallow="tram rail_urban rail rail_electric ship" id=":117566401_7_0" index="0" length="4.05" shape="800.24,849.24 802.69,849.82 803.96,850.68" speed="11.11"/>
   </edge>
   <edge function="internal" id=":117566401_8">
      <lane disallow="tram rail_urban rail rail_electric ship" id=":117566401_8_0" index="0" length="2.18" shape="800.24,849.24 801.40,850.18 801.65,850.82" speed="13.89"/>
   </edge>
   <edge function="internal" id=":117566401_10">
      <lane id=":117566401_10_0" index="0" length="5.56" shape="803.96,850.68 804.52,851.06 805.74,852.96 806.35,855.51" speed="11.11"/>
   </edge>
   <edge function="internal" id=":117566401_11">
      <lane id=":117566401_11_0" index="0" length="2.64" shape="801.65,850.82 801.74,851.04 801.25,851.82 799.94,852.53" speed="13.89"/>
   </edge>
   <edge function="internal" id=":117566408_0">
      <lane disallow="tram rail_urban rail rail_electric ship" id=":117566408_0_0" index="0" length="5.03" shape="716.49,836.00 715.11,835.89 714.04,836.25 713.26,837.08 712.78,838.38" speed="8.33"/>
   </edge>
   <edge function="internal" id=":117566408_1">
      <lane disallow="tram rail_urban rail rail_electric ship" id=":117566408_1_0" index="0" length="9.54" shape="716.49,836.00 707.16,834.00" speed="13.89"/>
   </edge>
   <edge function="internal" id=":117566408_2">
      <lane disallow="tram rail_urban rail rail_electric ship" id=":117566408_2_0" index="0" length="2.41" shape="716.49,836.00 715.46,834.92 715.24,834.03" speed="13.89"/>
   </edge>
   <edge function="internal" id=":117566408_9">
      <lane id=":117566408_9_0" index="0" length="2.41" shape="715.24,834.03 715.83,833.31 717.22,832.78" speed="13.89"/>
   </edge>
   <edge function="internal" id=":117566408_3">
      <lane disallow="tram rail_urban rail rail_electric ship" id=":117566408_3_0" index="0" length="9.62" shape="707.81,830.77 717.22,832.78" speed="13.89"/>
   </edge>
   <edge function="internal" id=":117566408_4">
      <lane disallow="tram rail_urban rail rail_electric ship" id=":117566408_4_0" index="0" length="5.36" shape="707.81,830.77 710.50,831.72 712.23,833.31 712.28,833.46" speed="8.33"/>
   </edge>
   <edge function="internal" id=":117566408_5">
      <lane disallow="tram rail_urban rail rail_electric ship" id=":117566408_5_0" index="0" length="2.41" shape="707.81,830.77 708.86,831.82 709.10,832.71" speed="13.89"/>
   </edge>
   <edge function="internal" id=":117566408_10">
      <lane id=":117566408_10_0" index="0" length="5.04" shape="712.28,833.46 712.99,835.53 712.78,838.38" speed="8.33"/>
   </edge>
   <edge function="internal" id=":117566408_11">
      <lane id=":117566408_11_0" index="0" length="2.41" shape="709.10,832.71 708.53,833.44 707.16,834.00" speed="13.89"/>
   </edge>
   <edge function="internal" id=":117566408_6">
      <lane disallow="tram rail_urban rail rail_electric ship" id=":117566408_6_0" index="0" length="5.02" shape="709.56,837.67 709.66,836.30 709.29,835.23 708.46,834.46 707.16,834.00" speed="8.33"/>
   </edge>
   <edge function="internal" id=":117566408_7">
      <lane disallow="tram rail_urban rail rail_electric ship" id=":117566408_7_0" index="0" length="10.38" shape="709.56,837.67 710.55,835.00 712.16,833.29 714.38,832.55 717.22,832.78" speed="8.33"/>
   </edge>
   <edge function="internal" id=":117566408_8">
      <lane disallow="tram rail_urban rail rail_electric ship" id=":117566408_8_0" index="0" length="4.82" shape="709.56,837.67 710.63,836.64 711.52,836.41 712.24,836.99 712.78,838.38" speed="2.78"/>
   </edge>
   <edge function="internal" id=":117566501_0">
      <lane disallow="tram rail_urban rail rail_electric ship" id=":117566501_0_0" index="0" length="0.57" shape="224.19,72.88 223.67,73.10" speed="8.33"/>
   </edge>
   <edge function="internal" id=":117566501_1">
      <lane disallow="tram rail_urban rail rail_electric ship" id=":117566501_1_0" index="0" length="2.41" shape="224.19,72.88 222.72,72.65 222.00,72.07" speed="8.33"/>
   </edge>
   <edge function="internal" id=":117566501_5">
      <lane id=":117566501_5_0" index="0" length="2.41" shape="222.00,72.07 222.03,71.15 222.81,69.88" speed="8.33"/>
   </edge>
   <edge function="internal" id=":117566501_2">
      <lane disallow="tram rail_urban rail rail_electric ship" id=":117566501_2_0" index="0" length="0.23" shape="221.32,66.93 221.42,66.89" speed="8.33"/>
      <lane disallow="tram rail_urban rail rail_electric ship" id=":117566501_2_1" index="1" length="0.23" shape="222.49,70.01 222.81,69.88" speed="8.33"/>
   </edge>
   <edge function="internal" id=":117566501_4">
      <lane disallow="tram rail_urban rail rail_electric ship" id=":117566501_4_0" index="0" length="2.41" shape="222.49,70.01 223.94,70.34 224.62,70.97" speed="8.33"/>
   </edge>
   <edge function="internal" id=":117566501_6">
      <lane id=":117566501_6_0" index="0" length="2.41" shape="224.62,70.97 224.53,71.89 223.67,73.10" speed="8.33"/>
   </edge>
   <edge function="internal" id=":117566571_0">
      <lane disallow="tram rail_urban rail rail_electric ship" id=":117566571_0_0" index="0" length="5.27" shape="898.95,29.08 894.76,31.83" speed="13.89"/>
      <lane disallow="tram rail_urban rail rail_electric ship" id=":117566571_0_1" index="1" length="5.27" shape="897.28,26.23 892.67,29.27" speed="13.89"/>
   </edge>
   <edge function="internal" id=":117566571_2">
      <lane disallow="tram rail_urban rail rail_electric ship" id=":117566571_2_0" index="0" length="4.16" shape="897.28,26.23 895.53,26.58 893.84,25.53 893.62,25.21" speed="13.89"/>
   </edge>
   <edge function="internal" id=":117566571_3">
      <lane disallow="tram rail_urban rail rail_electric ship" id=":117566571_3_0" index="0" length="2.99" shape="897.28,26.23 895.80,26.14 895.02,25.64 894.98,25.06" speed="13.89"/>
   </edge>
   <edge function="internal" id=":117566571_7">
      <lane id=":117566571_7_0" index="0" length="6.70" shape="893.62,25.21 892.20,23.09 890.61,19.26" speed="13.89"/>
   </edge>
   <edge function="internal" id=":117566571_8">
      <lane id=":117566571_8_0" index="0" length="1.83" shape="894.98,25.06 894.96,24.72 895.61,23.38" speed="13.89"/>
   </edge>
   <edge function="internal" id=":117566571_4">
      <lane disallow="tram rail_urban rail rail_electric ship" id=":117566571_4_0" index="0" length="5.71" shape="888.48,24.17 889.73,22.95 890.51,21.72 890.80,20.49 890.61,19.26" speed="13.89"/>
   </edge>
   <edge function="internal" id=":117566571_5">
      <lane disallow="tram rail_urban rail rail_electric ship" id=":117566571_5_0" index="0" length="7.17" shape="888.48,24.17 895.61,23.38" speed="13.89"/>
   </edge>
   <edge function="internal" id=":117566571_6">
      <lane disallow="tram rail_urban rail rail_electric ship" id=":117566571_6_0" index="0" length="2.64" shape="890.57,26.72 892.05,26.58 892.90,26.95 892.95,27.17" speed="13.89"/>
   </edge>
   <edge function="internal" id=":117566571_9">
      <lane id=":117566571_9_0" index="0" length="2.18" shape="892.95,27.17 893.10,27.85 892.67,29.27" speed="13.89"/>
   </edge>
   <edge function="internal" id=":117566611_0">
      <lane disallow="tram rail_urban rail rail_electric ship" id=":117566611_0_0" index="0" length="4.82" shape="844.02,4.80 844.94,5.97 845.07,6.88 844.42,7.54 842.99,7.93" speed="13.89"/>
   </edge>
   <edge function="internal" id=":117566616_0">
      <lane allow="delivery bicycle pedestrian" id=":117566616_0_0" index="0" length="0.10" shape="592.67,12.56 592.67,12.56" speed="9.73"/>
   </edge>
   <edge function="internal" id=":117566616_1">
      <lane disallow="tram rail_urban rail rail_electric ship" id=":117566616_1_0" index="0" length="2.41" shape="592.67,12.56 591.40,11.78 590.96,10.96" speed="13.89"/>
   </edge>
   <edge function="internal" id=":117566616_4">
      <lane id=":117566616_4_0" index="0" length="2.41" shape="590.96,10.96 591.35,10.13 592.56,9.26" speed="13.89"/>
   </edge>
   <edge function="internal" id=":117566616_2">
      <lane disallow="tram rail_urban rail rail_electric ship" id=":117566616_2_0" index="0" length="0.10" shape="592.56,9.26 592.56,9.26" speed="9.73"/>
   </edge>
   <edge function="internal" id=":117566616_3">
      <lane allow="delivery bicycle pedestrian" id=":117566616_3_0" index="0" length="2.41" shape="592.56,9.26 593.82,10.05 594.26,10.86" speed="5.56"/>
   </edge>
   <edge function="internal" id=":117566616_5">
      <lane id=":117566616_5_0" index="0" length="2.41" shape="594.26,10.86 593.88,11.70 592.67,12.56" speed="5.56"/>
   </edge>
   <edge function="internal" id=":117566618_0">
      <lane allow="delivery bicycle pedestrian" id=":117566618_0_0" index="0" length="4.82" shape="478.21,14.64 477.17,13.58 476.93,12.68 477.51,11.96 478.89,11.41" speed="5.56"/>
   </edge>
   <edge function="internal" id=":1212461044_0">
      <lane allow="delivery bicycle pedestrian" id=":1212461044_0_0" index="0" length="0.10" shape="889.63,534.02 889.66,534.12" speed="5.56"/>
   </edge>
   <edge function="internal" id=":1212461044_1">
      <lane allow="delivery bicycle pedestrian" id=":1212461044_1_0" index="0" length="2.41" shape="889.63,534.02 890.11,532.62 890.80,532.01" speed="5.56"/>
   </edge>
   <edge function="internal" id=":1212461044_4">
      <lane id=":1212461044_4_0" index="0" length="2.41" shape="890.80,532.01 891.70,532.19 892.82,533.17" speed="5.56"/>
   </edge>
   <edge function="internal" id=":1212461044_2">
      <lane allow="delivery bicycle pedestrian" id=":1212461044_2_0" index="0" length="0.10" shape="892.79,533.08 892.82,533.17" speed="5.56"/>
   </edge>
   <edge function="internal" id=":1212461044_3">
      <lane allow="delivery bicycle pedestrian" id=":1212461044_3_0" index="0" length="2.41" shape="892.79,533.08 892.40,534.51 891.74,535.16" speed="5.56"/>
   </edge>
   <edge function="internal" id=":1212461044_5">
      <lane id=":1212461044_5_0" index="0" length="2.41" shape="891.74,535.16 890.83,535.03 889.66,534.12" speed="5.56"/>
   </edge>
   <edge function="internal" id=":129997037_0">
      <lane disallow="tram rail_urban rail rail_electric ship" id=":129997037_0_0" index="0" length="4.82" shape="928.43,10.78 929.83,11.28 930.43,11.97 930.24,12.87 929.24,13.98" speed="13.89"/>
   </edge>
   <edge function="internal" id=":129997042_0">
      <lane disallow="tram rail_urban rail rail_electric ship" id=":129997042_0_0" index="0" length="3.07" shape="908.38,160.05 905.58,160.17" speed="13.89"/>
      <lane disallow="tram rail_urban rail rail_electric ship" id=":129997042_0_1" index="1" length="3.07" shape="908.38,160.05 907.29,157.35" speed="13.89"/>
      <lane disallow="tram rail_urban rail rail_electric ship" id=":129997042_0_2" index="2" length="3.07" shape="910.32,157.38 908.99,154.52" speed="13.89"/>
      <lane disallow="tram rail_urban rail rail_electric ship" id=":129997042_0_3" index="3" length="3.07" shape="912.27,154.72 910.70,151.69" speed="13.89"/>
   </edge>
   <edge function="internal" id=":131185480_0">
      <lane disallow="tram rail_urban rail rail_electric ship" id=":131185480_0_0" index="0" length="0.50" shape="367.04,793.70 366.55,793.72" speed="22.22"/>
   </edge>
   <edge function="internal" id=":1392022893_0">
      <lane disallow="tram rail_urban rail rail_electric ship" id=":1392022893_0_0" index="0" length="4.38" shape="849.81,80.27 849.80,84.35" speed="13.89"/>
      <lane disallow="tram rail_urban rail rail_electric ship" id=":1392022893_0_1" index="1" length="4.38" shape="847.00,78.54 846.70,83.21" speed="13.89"/>
   </edge>