<?xml version="1.0" encoding="utf-8"?><!-- generated on 10/11/17 17:49:37 by SUMO polyconvert Version 0.25.0
<?xml version="1.0" encoding="UTF-8"?>

<configuration xmlns:xsi="http://www.w3.org/2001/XMLSchema-instance" xsi:noNamespaceSchemaLocation="http://sumo.dlr.de/xsd/polyconvertConfiguration.xsd">

    <input>
        <net-file value="AC_Walheim_rural_800.net.xml"/>
        <osm-files value="AC_Walheim_rural_800.osm"/>
        <type-file value="osmPolyconvert.typ.xml"/>
    </input>

    <output>
        <output-file value="AC_Walheim_rural_800.poly.xml"/>
    </output>

    <projection>
        <proj.utm value="true"/>
    </projection>

    <processing>
        <poi-layer-offset value="5"/>
    </processing>

</configuration>
-->
<additional>
   <location convBoundary="-2.98,-10.82,822.21,810.24" netOffset="-300198.51,-5620446.64" origBoundary="6.170407,50.701601,6.181700,50.708891" projParameter="+proj=utm +zone=32 +ellps=WGS84 +datum=WGS84 +units=m +no_defs"/>
   <poly color="237,199,199" fill="1" id="115427843" layer="-1.00" shape="429.29,746.48 429.99,746.97 430.45,746.36 429.71,745.84 432.02,742.36 432.75,742.84 433.23,742.16 432.51,741.61 434.50,738.67 435.21,739.14 435.65,738.51 434.93,738.04 436.96,735.00 437.68,735.49 438.13,734.84 437.40,734.34 439.38,731.33 440.13,731.80 440.59,731.16 439.83,730.67 442.16,727.17 442.88,727.64 443.33,727.00 442.59,726.51 445.39,722.15 442.11,720.05 442.23,719.86 443.11,719.92 443.19,719.15 442.33,719.06 442.36,717.14 443.03,716.60 442.53,715.95 441.84,716.50 440.03,715.35 440.27,714.51 439.50,714.28 439.13,713.92 434.87,711.10 432.59,714.61 430.10,718.24 429.40,717.76 428.91,718.43 429.65,718.92 427.36,722.37 426.62,721.91 426.16,722.56 426.91,723.05 424.91,726.05 424.20,725.58 423.74,726.27 424.45,726.76 422.47,729.73 421.76,729.24 421.28,729.94 422.03,730.43 420.02,733.42 419.29,732.92 418.86,733.59 419.58,734.08 417.26,737.57 416.52,737.08 416.08,737.74 416.81,738.23 416.36,738.95 417.01,739.39 417.50,738.68 420.76,740.86 418.13,744.82 418.70,745.19 418.12,746.06 418.63,746.42 419.03,745.78 421.65,747.54 421.21,748.15 421.72,748.52 422.33,747.65 422.87,747.98 424.04,746.26 425.34,747.14 426.74,746.70 427.61,745.40 428.61,746.05 428.15,746.79 428.80,747.23 429.29,746.48" type="amenity"/>
   <poly color="red" fill="1" id="115485691" layer="-1.00" shape="476.01,798.45 467.10,804.56 480.65,805.19 476.01,798.45" type="building"/>
   <poly color="red" fill="1" id="115485692" layer="-1.00" shape="402.43,774.88 409.91,768.61 404.58,762.62 396.95,768.71 402.43,774.88" type="building"/>
   <poly color="red" fill="1" id="115485693" layer="-1.00" shape="291.50,714.72 295.49,708.50 292.48,706.58 299.56,695.53 290.47,689.74 286.22,696.37 284.89,695.53 281.43,700.90 288.98,705.71 285.61,710.96 291.50,714.72" type="building"/>
   <poly color="red" fill="1" id="115485697" layer="-1.00" shape="378.99,767.56 388.59,758.43 390.93,760.87 381.34,770.00 378.99,767.56" type="building"/>
   <poly color="red" fill="1" id="115485698" layer="-1.00" shape="459.28,758.47 443.88,768.77 450.01,777.89 461.75,770.02 459.96,767.37 463.80,764.80 459.28,758.47" type="building"/>
   <poly color="red" fill="1" id="115485701" layer="-1.00" shape="309.76,662.94 318.97,657.08 314.17,649.57 304.97,655.43 309.76,662.94" type="building"/>
   <poly color="red" fill="1" id="115485702" layer="-1.00" shape="364.14,715.61 368.99,711.30 373.22,716.04 368.38,720.35 364.14,715.61" type="building"/>
   <poly color="red" fill="0" id="115485708" layer="-1.00" shape="427.48,808.69 423.76,804.33 418.47,808.83" type="building"/>
   <poly color="red" fill="1" id="115485709" layer="-1.00" shape="330.75,679.13 334.90,687.21 344.55,682.29 354.01,677.48 350.97,671.54 348.82,672.64 346.98,669.04 338.82,673.19 341.41,678.24 336.90,680.54 335.06,676.93 330.75,679.13" type="building"/>
   <poly color="red" fill="1" id="115485712" layer="-1.00" shape="298.07,672.56 306.67,677.89 311.64,669.92 303.04,664.58 298.07,672.56" type="building"/>
   <poly color="red" fill="1" id="115485714" layer="-1.00" shape="336.52,762.45 330.38,774.57 351.51,785.20 355.24,777.83 350.42,775.41 351.98,772.33 340.80,766.72 341.66,765.02 336.52,762.45" type="building"/>
   <poly color="red" fill="1" id="115485718" layer="-1.00" shape="368.77,734.90 368.09,733.86 360.34,740.66 359.00,741.77 362.66,746.17 360.20,748.21 364.96,753.94 370.43,749.42 368.26,746.81 374.43,741.72 368.77,734.90" type="building"/>
   <poly color="red" fill="1" id="115485723" layer="-1.00" shape="342.34,655.69 345.15,653.82 341.66,648.59 329.85,656.42 335.12,664.33 344.12,658.35 342.34,655.69" type="building"/>
   <poly color="red" fill="1" id="115485726" layer="-1.00" shape="386.61,750.30 393.78,757.49 396.00,755.29 396.97,756.26 402.95,750.33 394.84,742.20 386.61,750.30" type="building"/>
   <poly color="red" fill="1" id="115485731" layer="-1.00" shape="354.60,707.00 367.92,698.13 360.51,687.06 354.44,691.11 357.34,695.44 348.51,701.34 344.01,694.62 337.33,699.07 342.57,706.91 340.69,708.16 344.28,713.53 348.77,710.53 352.84,716.61 358.50,712.83 354.60,707.00" type="building"/>
   <poly color="red" fill="1" id="115485733" layer="-1.00" shape="274.85,709.46 270.59,717.46 276.76,720.72 275.43,723.22 286.74,729.20 289.03,724.89 285.29,722.92 286.24,721.13 284.88,720.41 287.22,716.00 274.85,709.46" type="building"/>
   <poly color="red" fill="1" id="115485737" layer="-1.00" shape="400.45,793.16 404.22,797.58 408.91,793.61 415.11,800.89 424.58,792.88 426.68,795.34 434.16,789.01 419.43,771.70 413.02,777.12 415.70,780.27 400.45,793.16" type="building"/>
   <poly color="red" fill="1" id="115485739" layer="-1.00" shape="323.51,651.69 334.43,644.65 332.48,641.63 330.92,642.62 327.68,637.62 318.31,643.66 323.51,651.69" type="building"/>
   <poly color="red" fill="1" id="115485742" layer="-1.00" shape="367.97,763.35 377.77,752.50 374.07,749.18 364.27,760.03 367.97,763.35" type="building"/>
   <poly color="red" fill="1" id="115485749" layer="-1.00" shape="464.68,778.66 453.43,789.73 458.57,794.94 469.82,783.18 467.40,781.05 464.68,778.66" type="building"/>
   <poly color="red" fill="1" id="115488214" layer="-1.00" shape="517.78,754.26 509.53,748.00 503.90,755.40 505.30,756.46 502.33,760.37 511.03,766.95 515.71,760.81 514.82,760.13 519.38,754.13 522.33,756.37 526.67,750.68 522.76,747.72 517.78,754.26" type="building"/>
   <poly color="red" fill="1" id="115488215" layer="-1.00" shape="548.15,766.92 558.24,774.74 554.09,780.06 544.00,772.25 548.15,766.92" type="building"/>
   <poly color="red" fill="1" id="115488217" layer="-1.00" shape="604.32,785.28 613.27,775.74 607.28,770.16 606.26,771.25 603.60,768.76 595.44,777.46 598.79,780.59 598.15,781.27 600.94,783.87 601.81,782.94 604.32,785.28" type="building"/>
   <poly color="red" fill="1" id="115488219" layer="-1.00" shape="657.24,760.78 642.81,747.64 653.78,735.66 668.22,748.79 657.24,760.78" type="building"/>
   <poly color="red" fill="1" id="115488222" layer="-1.00" shape="605.88,696.63 600.35,703.75 605.47,707.71 602.94,710.97 607.42,714.43 611.05,709.75 609.66,708.68 614.09,702.97 605.88,696.63" type="building"/>
   <poly color="red" fill="1" id="115488224" layer="-1.00" shape="499.56,717.01 507.38,703.38 481.75,688.74 473.92,702.38 499.56,717.01" type="building"/>
   <poly color="red" fill="1" id="115488226" layer="-1.00" shape="608.62,717.32 614.02,710.60 614.96,711.35 619.38,705.84 631.81,715.77 621.98,728.01 608.62,717.32" type="building"/>
   <poly color="red" fill="1" id="115488229" layer="-1.00" shape="487.07,750.02 494.72,755.02 496.68,752.04 498.71,753.36 502.59,747.45 500.29,745.94 503.40,741.20 499.92,738.93 501.89,735.94 494.48,731.10 489.63,738.48 492.05,740.05 488.34,745.71 489.43,746.42 487.07,750.02" type="building"/>
   <poly color="red" fill="1" id="115488230" layer="-1.00" shape="468.82,720.52 465.90,718.75 463.26,717.12 456.80,727.42 462.33,730.87 468.82,720.52" type="building"/>
   <poly color="red" fill="0" id="115488232" layer="-1.00" shape="597.31,803.76 592.63,799.60" type="building"/>
   <poly color="red" fill="0" id="115488234" layer="-1.00" shape="621.93,801.07 619.49,798.93 629.76,787.26 618.47,777.37 607.73,789.57 616.62,797.35 612.55,801.97" type="building"/>
   <poly color="red" fill="1" id="115488236" layer="-1.00" shape="522.39,773.81 518.29,779.68 526.57,785.50 530.63,779.69 522.39,773.81" type="building"/>
   <poly color="red" fill="1" id="115488238" layer="-1.00" shape="632.01,734.23 636.86,738.97 646.52,729.17 641.60,724.36 632.01,734.23" type="building"/>
   <poly color="red" fill="1" id="115488242" layer="-1.00" shape="468.02,738.16 480.48,745.99 486.21,736.90 484.90,736.09 487.76,731.55 481.58,727.66 475.41,737.43 473.74,736.38 474.86,734.61 471.57,732.54 468.02,738.16" type="building"/>
   <poly color="237,199,199" fill="1" id="115488244" layer="-1.00" shape="554.12,750.36 561.24,740.55 535.14,721.69 528.01,731.48 554.12,750.36" type="amenity"/>
   <poly color="red" fill="1" id="115488244#1" layer="-1.00" shape="554.12,750.36 561.24,740.55 535.14,721.69 528.01,731.48 554.12,750.36" type="building"/>
   <poly color="red" fill="1" id="115490311" layer="-1.00" shape="572.61,662.03 565.98,658.66 567.43,655.82 559.18,651.60 553.95,661.80 560.66,665.21 558.95,668.56 567.11,672.73 572.61,662.03" type="building"/>
   <poly color="red" fill="1" id="115490312" layer="-1.00" shape="70.03,532.60 87.97,522.88 81.42,510.86 63.41,520.45 70.03,532.60" type="building"/>
   <poly color="red" fill="1" id="115490313" layer="-1.00" shape="123.44,523.36 130.09,525.86 134.12,515.18 129.37,513.39 128.14,516.64 124.74,515.35 122.06,522.55 123.44,523.36" type="building"/>
   <poly color="red" fill="1" id="115490314" layer="-1.00" shape="181.44,543.34 196.70,549.63 200.19,541.21 194.16,538.73 194.80,537.19 185.57,533.38 181.44,543.34" type="building"/>
   <poly color="red" fill="1" id="115490315" layer="-1.00" shape="384.44,685.89 397.44,680.11 393.07,670.33 380.08,676.12 384.44,685.89" type="building"/>
   <poly color="red" fill="1" id="115490316" layer="-1.00" shape="374.41,666.93 384.87,662.73 381.54,654.51 371.08,658.72 374.41,666.93" type="building"/>
   <poly color="red" fill="1" id="115490317" layer="-1.00" shape="88.77,563.42 94.54,560.22 95.36,561.69 101.41,558.32 100.26,556.26 102.78,554.86 99.06,548.22 95.93,549.96 94.58,547.53 89.50,550.36 90.60,552.33 85.93,554.93 86.85,556.58 85.39,557.39 88.77,563.42" type="building"/>
   <poly color="red" fill="1" id="115490318" layer="-1.00" shape="127.93,672.00 129.86,666.85 127.85,666.09 116.72,662.27 112.59,674.28 121.99,677.49 123.02,674.50 126.65,675.74 127.93,672.00" type="building"/>
   <poly color="red" fill="1" id="115490319" layer="-1.00" shape="629.29,677.17 636.85,666.64 629.71,661.55 631.36,659.23 626.84,656.01 617.63,668.84 629.29,677.17" type="building"/>
   <poly color="red" fill="1" id="115490320" layer="-1.00" shape="648.91,692.29 654.36,685.11 652.28,683.53 657.51,676.65 652.75,673.05 649.14,677.77 641.32,671.86 635.31,679.77 645.93,687.80 644.86,689.22 648.91,692.29" type="building"/>
   <poly color="red" fill="1" id="115490321" layer="-1.00" shape="80.62,547.62 94.74,540.11 88.84,529.08 77.38,535.18 78.85,537.94 76.19,539.34 80.62,547.62" type="building"/>
   <poly color="red" fill="1" id="115490322" layer="-1.00" shape="259.46,670.07 275.78,678.34 280.89,668.30 264.57,660.04 259.46,670.07" type="building"/>
   <poly color="red" fill="1" id="115490323" layer="-1.00" shape="106.26,495.07 107.90,495.70 119.67,500.23 122.27,493.50 114.35,490.45 113.61,492.39 108.12,490.28 106.26,495.07" type="building"/>
   <poly color="red" fill="1" id="115490324" layer="-1.00" shape="366.54,650.18 377.21,645.18 372.26,634.67 361.59,639.67 366.54,650.18" type="building"/>
   <poly color="red" fill="1" id="115490325" layer="-1.00" shape="256.50,698.01 265.73,703.05 270.72,693.95 261.49,688.92 256.50,698.01" type="building"/>
   <poly color="red" fill="1" id="115490326" layer="-1.00" shape="363.38,616.09 361.21,605.11 348.62,607.59 350.80,618.56 363.38,616.09" type="building"/>
   <poly color="red" fill="1" id="115490327" layer="-1.00" shape="590.28,695.98 597.49,682.40 586.12,676.40 578.92,689.98 590.28,695.98" type="building"/>
   <poly color="red" fill="1" id="115490328" layer="-1.00" shape="122.28,647.93 128.38,649.79 128.99,647.84 136.79,650.23 137.91,646.62 141.21,647.63 143.23,641.05 139.48,639.92 140.34,637.11 130.41,634.08 127.87,642.34 124.33,641.26 122.28,647.93" type="building"/>
   <poly color="red" fill="1" id="115490329" layer="-1.00" shape="50.06,480.30 63.77,473.22 58.76,463.57 45.05,470.65 50.06,480.30" type="building"/>
   <poly color="red" fill="1" id="115490330" layer="-1.00" shape="175.65,605.86 178.51,599.58 186.78,603.33 183.92,609.61 175.65,605.86" type="building"/>
   <poly color="red" fill="1" id="115490331" layer="-1.00" shape="587.16,652.34 594.08,638.22 581.66,632.16 574.74,646.26 587.16,652.34" type="building"/>
   <poly color="red" fill="1" id="115490332" layer="-1.00" shape="680.67,729.11 688.51,718.72 685.08,716.15 689.42,710.40 679.32,702.81 672.38,711.98 679.41,717.27 674.16,724.21 680.67,729.11" type="building"/>
   <poly color="red" fill="1" id="115490333" layer="-1.00" shape="177.53,646.31 196.68,652.37 202.62,633.68 190.42,629.82 187.20,639.93 180.26,637.73 177.53,646.31" type="building"/>
   <poly color="red" fill="1" id="115490334" layer="-1.00" shape="128.02,630.48 136.10,633.10 138.55,625.61 144.08,627.40 147.28,617.62 142.51,616.08 143.42,613.29 134.57,610.41 128.02,630.48" type="building"/>
   <poly color="red" fill="1" id="115490335" layer="-1.00" shape="421.95,689.01 414.23,693.89 412.88,694.76 416.25,700.05 425.32,694.31 421.95,689.01" type="building"/>
   <poly color="red" fill="1" id="115490336" layer="-1.00" shape="602.46,658.48 608.60,645.71 598.14,640.71 592.00,653.48 602.46,658.48" type="building"/>
   <poly color="red" fill="1" id="115490337" layer="-1.00" shape="105.94,500.76 111.15,502.77 110.36,504.81 118.39,507.90 121.15,500.79 119.67,500.23 107.90,495.70 105.94,500.76" type="building"/>
   <poly color="red" fill="1" id="115490338" layer="-1.00" shape="428.91,718.43 429.40,717.76 430.10,718.24 432.59,714.61 425.57,710.27 426.16,709.41 416.82,703.11 410.49,712.46 408.07,710.83 404.85,715.57 416.60,723.50 422.66,714.55 428.91,718.43" type="building"/>
   <poly color="red" fill="1" id="115490339" layer="-1.00" shape="113.44,606.45 119.31,608.37 121.91,600.43 111.27,596.96 110.50,599.29 105.36,597.60 101.32,609.92 105.16,611.18 104.28,613.86 112.13,616.42 114.20,610.11 112.43,609.53 113.44,606.45" type="building"/>
   <poly color="red" fill="1" id="115490340" layer="-1.00" shape="210.53,696.09 215.51,681.50 197.18,675.28 192.21,689.86 210.53,696.09" type="building"/>
   <poly color="red" fill="1" id="115490341" layer="-1.00" shape="538.80,665.97 538.24,667.11 534.37,665.23 530.13,673.92 545.06,681.17 549.86,671.35 538.80,665.97" type="building"/>
   <poly color="red" fill="1" id="115490342" layer="-1.00" shape="158.51,677.50 184.79,686.27 187.94,676.86 184.78,675.80 187.95,666.32 178.44,663.14 175.68,671.38 162.09,666.84 158.51,677.50" type="building"/>
   <poly color="red" fill="1" id="115490343" layer="-1.00" shape="137.36,527.95 151.58,533.80 156.13,522.78 141.91,516.94 137.36,527.95" type="building"/>
   <poly color="red" fill="1" id="115490344" layer="-1.00" shape="571.97,693.89 579.57,679.08 567.11,672.73 562.86,681.03 564.83,682.05 561.50,688.54 571.97,693.89" type="building"/>
   <poly color="red" fill="1" id="115490345" layer="-1.00" shape="234.49,705.69 239.57,693.13 225.50,687.48 224.27,690.51 221.16,689.26 217.31,698.79 234.49,705.69" type="building"/>
   <poly color="red" fill="1" id="115490346" layer="-1.00" shape="179.78,580.87 200.55,589.41 204.95,578.79 184.18,570.24 179.78,580.87" type="building"/>
   <poly color="red" fill="1" id="115490347" layer="-1.00" shape="57.63,675.15 74.71,680.98 79.84,666.03 68.81,662.27 67.07,667.33 61.02,665.27 57.63,675.15" type="building"/>
   <poly color="red" fill="1" id="115490348" layer="-1.00" shape="169.68,565.40 161.02,561.84 156.90,571.78 175.51,579.44 180.98,566.24 171.04,562.15 169.68,565.40" type="building"/>
   <poly color="red" fill="1" id="115490349" layer="-1.00" shape="205.68,658.92 216.27,663.89 228.83,654.67 223.05,647.01 215.94,652.66 208.61,650.06 205.68,658.92" type="building"/>
   <poly color="red" fill="1" id="115490350" layer="-1.00" shape="156.57,538.18 171.63,544.18 176.47,532.07 168.10,528.74 166.58,532.52 159.90,529.86 156.57,538.18" type="building"/>
   <poly color="red" fill="1" id="115490351" layer="-1.00" shape="352.71,628.27 365.30,625.79 363.38,616.09 350.80,618.56 352.71,628.27" type="building"/>
   <poly color="red" fill="1" id="115490352" layer="-1.00" shape="202.51,556.17 216.44,562.53 224.16,545.72 216.64,542.29 213.78,548.50 207.38,545.58 202.51,556.17" type="building"/>
   <poly color="red" fill="1" id="115490353" layer="-1.00" shape="503.94,683.93 509.41,674.08 500.34,669.06 494.87,678.91 503.94,683.93" type="building"/>
   <poly color="red" fill="1" id="115490354" layer="-1.00" shape="519.27,659.87 524.30,649.69 513.01,644.14 514.72,640.67 510.49,638.59 503.74,652.23 519.27,659.87" type="building"/>
   <poly color="red" fill="1" id="115490355" layer="-1.00" shape="256.78,715.86 262.38,702.21 254.91,699.15 252.91,704.04 246.11,701.26 245.40,702.97 243.46,702.18 242.86,703.62 238.46,701.83 235.43,709.20 240.89,711.42 241.62,709.67 256.78,715.86" type="building"/>
   <poly color="red" fill="1" id="115490356" layer="-1.00" shape="115.32,591.83 123.71,594.48 128.41,581.43 120.60,570.97 118.75,578.05 113.38,576.33 109.40,588.12 115.72,589.70 115.32,591.83" type="building"/>
   <poly color="red" fill="1" id="115490357" layer="-1.00" shape="148.16,605.72 162.23,610.53 166.48,598.23 157.87,595.28 157.03,597.73 151.56,595.86 148.16,605.72" type="building"/>
   <poly color="red" fill="1" id="115490358" layer="-1.00" shape="133.72,557.44 147.63,562.71 152.72,549.31 138.81,544.05 133.72,557.44" type="building"/>
   <poly color="red" fill="1" id="115490359" layer="-1.00" shape="389.91,709.30 412.88,694.76 414.23,693.89 408.91,685.52 384.58,700.93 389.91,709.30" type="building"/>
   <poly color="red" fill="1" id="115490360" layer="-1.00" shape="63.33,514.81 76.91,507.14 70.24,495.38 56.66,503.06 63.33,514.81" type="building"/>
   <poly color="red" fill="1" id="115490361" layer="-1.00" shape="663.09,703.60 664.96,701.06 667.19,702.68 671.21,697.23 668.80,695.46 672.41,690.57 667.48,686.96 665.88,689.12 659.85,684.70 652.78,694.30 658.79,698.71 657.96,699.85 663.09,703.60" type="building"/>
   <poly color="red" fill="1" id="115490362" layer="-1.00" shape="57.18,495.97 70.81,488.79 65.24,478.27 51.60,485.45 57.18,495.97" type="building"/>
   <poly color="red" fill="1" id="115490363" layer="-1.00" shape="158.60,636.30 173.94,641.53 178.75,627.52 163.41,622.28 158.60,636.30" type="building"/>
   <poly color="red" fill="1" id="115490994" layer="-1.00" shape="217.84,409.48 229.99,415.47 232.82,409.80 230.15,408.48 232.32,404.12 222.83,399.43 217.84,409.48" type="building"/>
   <poly color="red" fill="1" id="115490995" layer="-1.00" shape="163.12,442.26 177.55,447.05 182.00,433.69 167.58,428.91 163.12,442.26" type="building"/>
   <poly color="red" fill="1" id="115490996" layer="-1.00" shape="38.27,356.06 50.46,358.32 52.68,346.45 45.43,345.12 45.72,343.62 40.77,342.71 38.27,356.06" type="building"/>
   <poly color="red" fill="1" id="115490997" layer="-1.00" shape="243.93,456.11 238.63,451.22 233.43,456.84 234.68,457.99 230.84,462.15 234.77,465.78 243.93,456.11" type="building"/>
   <poly color="red" fill="1" id="115490999" layer="-1.00" shape="187.47,394.33 196.78,398.64 199.28,393.29 201.30,388.95 191.99,384.63 187.47,394.33" type="building"/>
   <poly color="red" fill="1" id="115491000" layer="-1.00" shape="114.81,369.17 130.77,374.26 132.12,370.01 136.25,371.34 138.93,362.99 134.38,361.54 133.97,362.82 118.43,357.87 114.81,369.17" type="building"/>
   <poly color="red" fill="1" id="115491002" layer="-1.00" shape="284.24,508.24 301.18,515.38 299.24,519.97 282.30,512.84 284.24,508.24" type="building"/>
   <poly color="red" fill="1" id="115491003" layer="-1.00" shape="244.67,474.21 247.78,477.06 256.25,466.88 252.12,463.08 246.94,468.69 244.67,474.21" type="building"/>
   <poly color="red" fill="1" id="115491004" layer="-1.00" shape="284.88,450.53 278.75,449.13 277.14,456.22 275.77,462.20 281.91,463.59 284.88,450.53" type="building"/>
   <poly color="red" fill="1" id="115491005" layer="-1.00" shape="314.88,499.07 325.04,503.50 328.22,496.20 318.32,491.90 314.88,499.07" type="building"/>
   <poly color="red" fill="1" id="115491006" layer="-1.00" shape="58.49,413.51 69.51,413.53 69.53,403.47 58.50,403.46 58.49,413.51" type="building"/>
   <poly color="red" fill="1" id="115491007" layer="-1.00" shape="40.73,467.32 55.02,459.07 49.52,449.58 35.22,457.83 40.73,467.32" type="building"/>
   <poly color="red" fill="1" id="115491008" layer="-1.00" shape="190.39,427.38 207.24,433.45 210.48,424.53 193.63,418.46 190.39,427.38" type="building"/>
   <poly color="red" fill="1" id="115491009" layer="-1.00" shape="257.91,485.78 260.17,487.85 270.61,478.07 266.62,474.39 261.30,480.15 257.91,485.78" type="building"/>
   <poly color="red" fill="1" id="115491010" layer="-1.00" shape="174.15,389.13 183.14,392.92 187.38,382.93 178.39,379.14 174.15,389.13" type="building"/>
   <poly color="red" fill="1" id="115491011" layer="-1.00" shape="86.91,399.08 89.43,386.03 87.32,385.55 87.69,383.96 82.47,382.78 78.49,400.20 83.68,401.38 84.33,398.50 86.91,399.08" type="building"/>
   <poly color="red" fill="1" id="115491012" layer="-1.00" shape="72.76,451.13 85.63,449.00 84.07,439.61 81.46,440.04 80.89,436.56 70.62,438.25 72.76,451.13" type="building"/>
   <poly color="red" fill="1" id="115491013" layer="-1.00" shape="55.98,358.62 68.18,360.54 67.87,362.54 76.38,363.88 77.44,357.21 70.77,356.15 71.93,348.89 57.89,346.67 55.98,358.62" type="building"/>
   <poly color="red" fill="1" id="115491014" layer="-1.00" shape="20.01,353.07 32.31,355.30 34.25,344.67 21.95,342.44 20.01,353.07" type="building"/>
   <poly color="red" fill="1" id="115491015" layer="-1.00" shape="58.37,396.20 70.68,396.73 71.17,385.44 60.60,384.98 60.47,388.17 58.72,388.09 58.37,396.20" type="building"/>
   <poly color="red" fill="1" id="115491016" layer="-1.00" shape="321.27,528.52 312.20,525.87 310.29,532.32 319.37,534.97 321.27,528.52" type="building"/>
   <poly color="red" fill="1" id="115491017" layer="-1.00" shape="309.38,543.28 298.84,539.65 295.27,539.59 291.78,554.14 299.91,557.67 314.69,561.24 316.62,551.26 307.46,548.54 309.38,543.28" type="building"/>
   <poly color="red" fill="1" id="115491018" layer="-1.00" shape="299.21,481.27 299.99,479.89 303.78,473.14 306.16,468.88 299.04,464.90 296.64,469.17 292.08,477.29 299.21,481.27" type="building"/>
   <poly color="red" fill="1" id="115491019" layer="-1.00" shape="310.29,532.32 306.39,530.51 304.98,531.53 303.32,531.03 298.16,529.48 300.04,520.67 312.20,525.87 310.29,532.32" type="building"/>
   <poly color="red" fill="0" id="115491020" layer="-1.00" shape="14.94,352.47 16.94,341.25" type="building"/>
   <poly color="red" fill="1" id="115491021" layer="-1.00" shape="296.64,469.17 292.01,466.59 294.41,462.32 299.04,464.90 296.64,469.17" type="building"/>
   <poly color="red" fill="1" id="115491022" layer="-1.00" shape="121.31,416.15 127.43,400.54 110.31,393.88 106.96,402.42 115.44,405.72 112.67,412.79 121.31,416.15" type="building"/>
   <poly color="red" fill="1" id="115491023" layer="-1.00" shape="29.00,454.54 45.81,446.36 40.62,435.76 23.81,443.94 29.00,454.54" type="building"/>
   <poly color="red" fill="1" id="115491024" layer="-1.00" shape="84.36,364.19 88.75,365.01 89.04,363.47 94.28,364.46 93.90,366.45 98.79,367.38 100.98,355.90 91.08,354.02 91.59,351.34 86.97,350.47 84.36,364.19" type="building"/>
   <poly color="red" fill="1" id="115491025" layer="-1.00" shape="128.58,421.31 139.80,425.52 144.24,413.78 133.02,409.57 128.58,421.31" type="building"/>
   <poly color="red" fill="1" id="115491026" layer="-1.00" shape="157.21,418.98 148.60,415.50 142.80,429.78 151.40,433.26 157.21,418.98" type="building"/>
   <poly color="red" fill="1" id="115491028" layer="-1.00" shape="305.23,520.29 316.02,524.63 320.04,514.69 309.25,510.36 305.23,520.29" type="building"/>
   <poly color="red" fill="1" id="115491029" layer="-1.00" shape="159.36,384.56 164.41,370.44 144.43,363.35 141.60,371.31 148.13,373.62 145.93,379.79 159.36,384.56" type="building"/>
   <poly color="red" fill="1" id="115491030" layer="-1.00" shape="217.22,432.63 209.96,438.84 222.34,453.23 229.60,447.02 217.22,432.63" type="building"/>
   <poly color="red" fill="1" id="115491031" layer="-1.00" shape="205.21,396.03 202.72,401.38 211.30,405.35 216.05,395.17 207.47,391.19 205.21,396.03" type="building"/>
   <poly color="red" fill="1" id="115491032" layer="-1.00" shape="12.71,442.76 16.89,424.17 23.22,437.96 12.71,442.76" type="building"/>
   <poly color="red" fill="1" id="115491034" layer="-1.00" shape="70.33,430.45 80.85,430.84 81.31,418.50 70.80,418.12 70.33,430.45" type="building"/>
   <poly color="red" fill="1" id="115491035" layer="-1.00" shape="10.88,399.34 13.63,383.39 10.88,399.34" type="building"/>
   <poly color="red" fill="1" id="115491036" layer="-1.00" shape="21.38,405.80 33.04,407.68 33.92,402.21 32.39,401.97 34.88,386.71 27.22,385.47 27.55,383.43 21.57,382.47 19.83,393.13 24.93,393.96 23.95,399.99 22.36,399.74 21.38,405.80" type="building"/>
   <poly color="red" fill="1" id="115491037" layer="-1.00" shape="252.45,429.38 245.04,422.77 243.65,424.32 239.31,420.46 235.52,424.69 239.83,428.53 238.62,429.89 241.50,432.47 242.38,431.50 246.87,435.50 252.45,429.38" type="building"/>
   <poly color="red" fill="1" id="115491038" layer="-1.00" shape="230.73,454.50 227.83,461.91 230.01,463.57 230.84,462.15 234.68,457.99 233.43,456.84 230.73,454.50" type="building"/>
   <poly color="red" fill="1" id="115491039" layer="-1.00" shape="271.14,454.87 277.14,456.22 278.75,449.13 279.90,444.08 273.90,442.73 271.14,454.87" type="building"/>
   <poly color="red" fill="1" id="115491040" layer="-1.00" shape="199.28,393.29 205.21,396.03 202.72,401.38 196.78,398.64 199.28,393.29" type="building"/>
   <poly color="red" fill="1" id="115491041" layer="-1.00" shape="303.32,531.03 303.93,536.66 310.26,538.35 309.38,543.28 298.84,539.65 298.16,529.48 303.32,531.03" type="building"/>
   <poly color="red" fill="1" id="115491042" layer="-1.00" shape="277.55,521.37 264.50,512.16 269.39,505.27 282.44,514.48 277.55,521.37" type="building"/>
   <poly color="red" fill="1" id="115491043" layer="-1.00" shape="303.78,473.14 307.72,475.34 303.94,482.08 299.99,479.89 303.78,473.14" type="building"/>
   <poly color="red" fill="1" id="115491215" layer="-1.00" shape="229.77,521.89 236.77,507.31 227.51,502.90 223.03,512.23 220.55,511.06 219.54,513.15 216.69,519.10 219.91,520.63 221.25,517.83 229.77,521.89" type="building"/>
   <poly color="red" fill="1" id="115491216" layer="-1.00" shape="174.03,496.14 177.51,488.99 175.53,488.03 178.23,482.45 166.76,476.92 160.58,489.66 174.03,496.14" type="building"/>
   <poly color="red" fill="1" id="115491217" layer="-1.00" shape="216.69,519.10 219.54,513.15 217.79,512.32 224.11,499.13 213.81,494.21 207.62,507.10 214.05,510.16 211.05,516.41 216.69,519.10" type="building"/>
   <poly color="red" fill="1" id="115491218" layer="-1.00" shape="224.12,637.26 235.00,641.94 241.08,629.60 233.42,620.85 226.88,626.20 230.42,630.67 229.34,632.74 226.59,631.21 224.12,637.26" type="building"/>
   <poly color="red" fill="1" id="115491219" layer="-1.00" shape="158.26,482.15 164.85,467.94 151.93,461.99 145.35,476.20 158.26,482.15" type="building"/>
   <poly color="red" fill="1" id="115491220" layer="-1.00" shape="322.01,607.31 331.31,605.48 328.55,591.53 319.25,593.37 322.01,607.31" type="building"/>
   <poly color="red" fill="1" id="115491221" layer="-1.00" shape="303.87,637.49 297.86,634.38 288.28,631.06 285.24,639.79 298.58,644.40 299.86,640.70 302.44,641.59 303.87,637.49" type="building"/>
   <poly color="red" fill="1" id="115491222" layer="-1.00" shape="269.21,536.85 273.63,528.24 268.60,525.67 266.84,529.10 262.05,526.65 265.14,520.64 259.22,517.62 253.47,528.80 269.21,536.85" type="building"/>
   <poly color="red" fill="1" id="115491223" layer="-1.00" shape="133.33,476.56 139.21,479.24 145.06,466.43 135.79,462.21 133.79,466.59 137.23,468.27 133.33,476.56" type="building"/>
   <poly color="red" fill="1" id="115491224" layer="-1.00" shape="256.49,576.54 254.12,579.89 261.88,583.82 267.10,574.21 262.87,571.87 261.67,568.17 264.52,567.29 262.24,560.36 248.66,553.09 250.38,563.02 246.15,570.69 256.49,576.54" type="building"/>
   <poly color="red" fill="1" id="115491225" layer="-1.00" shape="279.04,570.78 289.62,574.90 292.95,566.44 282.36,562.31 279.04,570.78" type="building"/>
   <poly color="red" fill="1" id="115491226" layer="-1.00" shape="306.82,604.07 316.10,588.37 303.76,581.11 294.48,596.82 306.82,604.07" type="building"/>
   <poly color="red" fill="1" id="115491227" layer="-1.00" shape="245.14,536.66 248.73,529.66 247.32,528.95 254.10,515.76 242.38,509.78 235.75,522.69 243.54,526.67 239.81,533.93 245.14,536.66" type="building"/>
   <poly color="red" fill="1" id="115491228" layer="-1.00" shape="343.92,564.85 364.36,565.19 364.58,552.40 344.13,552.06 343.92,564.85" type="building"/>
   <poly color="red" fill="1" id="115491229" layer="-1.00" shape="286.69,657.43 290.89,648.67 281.21,644.05 277.01,652.81 286.69,657.43" type="building"/>
   <poly color="red" fill="1" id="115491230" layer="-1.00" shape="252.21,601.76 273.83,611.81 280.80,596.92 274.08,593.80 272.35,597.50 257.45,590.56 252.21,601.76" type="building"/>
   <poly color="red" fill="1" id="115491231" layer="-1.00" shape="264.33,629.86 270.09,618.47 264.19,615.50 262.45,618.95 253.54,614.47 249.53,622.41 264.33,629.86" type="building"/>