<?xml version="1.0" encoding="utf-8"?><!-- generated on 10/11/17 17:49:32 by SUMO netconvert Version 0.25.0
<?xml version="1.0" encoding="UTF-8"?>

<configuration xmlns:xsi="http://www.w3.org/2001/XMLSchema-instance" xsi:noNamespaceSchemaLocation="http://sumo.dlr.de/xsd/netconvertConfiguration.xsd">

    <input>
        <type-files value="osmNetconvert.typ.xml"/>
        <osm-files value="AC_Walheim_rural_800.osm"/>
    </input>

    <output>
        <output-file value="AC_Walheim_rural_800.net.xml"/>
    </output>

    <projection>
        <proj.utm value="true"/>
    </projection>

    <edge_removal>
        <remove-edges.by-type value="highway.track,highway.unsurfaced,highway.raceway,highway.bridleway,highway.path,highway.footway,highway.pedestrian,highway.cycleway,highway.step,highway.steps,highway.stairs,highway.bus_guideway,highway.ford,railway.rail,railway.tram,railway.light_rail,railway.subway,railway.preserved,railway.narrow_gauge,railway.monorail,railway.funicular"/>
    </edge_removal>

</configuration>
-->
<net version="0.25">
   <location convBoundary="0.00,0.00,816.87,796.96" netOffset="-300198.51,-5620446.64" origBoundary="6.170429,50.701610,6.181666,50.708870" projParameter="+proj=utm +zone=32 +ellps=WGS84 +datum=WGS84 +units=m +no_defs"/>
   <type allow="pedestrian" id="highway.bridleway" numLanes="1" oneway="1" priority="1" speed="2.78" width="2.00"/>
   <type allow="bus" id="highway.bus_guideway" numLanes="1" oneway="1" priority="1" speed="8.33"/>
   <type allow="bicycle" id="highway.cycleway" numLanes="1" oneway="0" priority="1" speed="5.56" width="1.00"/>
   <type allow="pedestrian" id="highway.footway" numLanes="1" oneway="1" priority="1" speed="8.33" width="2.00"/>
   <type allow="army" id="highway.ford" numLanes="1" oneway="0" priority="1" speed="2.78"/>
   <type disallow="tram rail_urban rail rail_electric ship" id="highway.living_street" numLanes="1" oneway="0" priority="3" speed="2.78"/>
   <type allow="private emergency authority army vip passenger hov taxi bus coach delivery truck trailer motorcycle evehicle custom1 custom2" id="highway.motorway" numLanes="2" oneway="1" priority="13" speed="44.44"/>
   <type allow="private emergency authority army vip passenger hov taxi bus coach delivery truck trailer motorcycle evehicle custom1 custom2" id="highway.motorway_link" numLanes="1" oneway="1" priority="12" speed="22.22"/>
   <type allow="bicycle pedestrian" id="highway.path" numLanes="1" oneway="1" priority="1" speed="2.78" width="2.00"/>
   <type allow="pedestrian" id="highway.pedestrian" numLanes="1" oneway="1" priority="1" speed="8.33" width="2.00"/>
   <type disallow="tram rail_urban rail rail_electric ship" id="highway.primary" numLanes="2" oneway="0" priority="9" speed="27.78"/>
   <type disallow="tram rail_urban rail rail_electric ship" id="highway.primary_link" numLanes="1" oneway="0" priority="8" speed="22.22"/>
   <type allow="vip" id="highway.raceway" numLanes="2" oneway="0" priority="14" speed="83.33"/>
   <type disallow="tram rail_urban rail rail_electric ship" id="highway.residential" numLanes="1" oneway="0" priority="4" speed="13.89"/>
   <type disallow="tram rail_urban rail rail_electric ship" id="highway.secondary" numLanes="2" oneway="0" priority="7" speed="27.78"/>
   <type disallow="tram rail_urban rail rail_electric ship" id="highway.secondary_link" numLanes="1" oneway="0" priority="6" speed="22.22"/>
   <type allow="delivery bicycle pedestrian" id="highway.service" numLanes="1" oneway="0" priority="2" speed="5.56"/>
   <type disallow="tram rail_urban rail rail_electric ship" id="highway.services" numLanes="1" oneway="0" priority="1" speed="8.33"/>
   <type allow="pedestrian" id="highway.stairs" numLanes="1" oneway="1" priority="1" speed="1.39" width="2.00"/>
   <type allow="pedestrian" id="highway.step" numLanes="1" oneway="1" priority="1" speed="1.39" width="2.00"/>
   <type allow="pedestrian" id="highway.steps" numLanes="1" oneway="1" priority="1" speed="1.39" width="2.00"/>
   <type disallow="tram rail_urban rail rail_electric ship" id="highway.tertiary" numLanes="1" oneway="0" priority="6" speed="22.22"/>
   <type disallow="tram rail_urban rail rail_electric ship" id="highway.tertiary_link" numLanes="1" oneway="0" priority="5" speed="22.22"/>
   <type disallow="tram rail_urban rail rail_electric ship" id="highway.track" numLanes="1" oneway="0" priority="1" speed="5.56"/>
   <type disallow="tram rail_urban rail rail_electric bicycle pedestrian ship" id="highway.trunk" numLanes="2" oneway="0" priority="11" speed="27.78"/>
   <type disallow="tram rail_urban rail rail_electric bicycle pedestrian ship" id="highway.trunk_link" numLanes="1" oneway="0" priority="10" speed="22.22"/>
   <type disallow="tram rail_urban rail rail_electric ship" id="highway.unclassified" numLanes="1" oneway="0" priority="5" speed="13.89"/>
   <type disallow="tram rail_urban rail rail_electric ship" id="highway.unsurfaced" numLanes="1" oneway="0" priority="1" speed="8.33"/>
   <type allow="rail_urban" id="railway.light_rail" numLanes="1" oneway="1" priority="15" speed="27.78"/>
   <type allow="rail" id="railway.preserved" numLanes="1" oneway="1" priority="15" speed="27.78"/>
   <type allow="rail rail_electric" id="railway.rail" numLanes="1" oneway="1" priority="15" speed="83.33"/>
   <type allow="rail_urban" id="railway.subway" numLanes="1" oneway="1" priority="15" speed="27.78"/>
   <type allow="tram" id="railway.tram" numLanes="1" oneway="1" priority="15" speed="13.89"/>
   <edge function="internal" id=":100355018_0">
      <lane disallow="tram rail_urban rail rail_electric ship" id=":100355018_0_0" index="0" length="0.37" shape="730.22,699.45 730.08,699.56" speed="13.89"/>
      <lane disallow="tram rail_urban rail rail_electric ship" id=":100355018_0_1" index="1" length="0.37" shape="728.20,696.83 727.79,697.19" speed="13.89"/>
   </edge>
   <edge function="internal" id=":100355018_2">
      <lane disallow="tram rail_urban rail rail_electric ship" id=":100355018_2_0" index="0" length="2.41" shape="728.20,696.83 726.72,696.93 725.89,696.53" speed="13.89"/>
   </edge>
   <edge function="internal" id=":100355018_6">
      <lane id=":100355018_6_0" index="0" length="2.41" shape="725.89,696.53 725.71,695.63 726.19,694.22" speed="13.89"/>
   </edge>
   <edge function="internal" id=":100355018_3">
      <lane disallow="tram rail_urban rail rail_electric ship" id=":100355018_3_0" index="0" length="1.11" shape="723.20,692.45 724.18,691.60" speed="13.89"/>
      <lane disallow="tram rail_urban rail rail_electric ship" id=":100355018_3_1" index="1" length="1.11" shape="725.49,694.82 726.19,694.22" speed="13.89"/>
   </edge>
   <edge function="internal" id=":100355018_5">
      <lane disallow="tram rail_urban rail rail_electric ship" id=":100355018_5_0" index="0" length="2.41" shape="725.49,694.82 726.95,694.55 727.82,694.86" speed="13.89"/>
   </edge>
   <edge function="internal" id=":100355018_7">
      <lane id=":100355018_7_0" index="0" length="2.41" shape="727.82,694.86 728.10,695.74 727.79,697.19" speed="13.89"/>
   </edge>
   <edge function="internal" id=":1303562608_0">
      <lane allow="delivery bicycle pedestrian" id=":1303562608_0_0" index="0" length="4.82" shape="775.80,304.24 776.18,302.80 776.82,302.15 777.74,302.27 778.92,303.17" speed="5.56"/>
   </edge>
   <edge function="internal" id=":1303562765_0">
      <lane allow="delivery bicycle pedestrian" id=":1303562765_0_0" index="0" length="0.10" shape="789.14,342.94 789.16,343.02" speed="5.56"/>
   </edge>
   <edge function="internal" id=":1303562765_1">
      <lane allow="delivery bicycle pedestrian" id=":1303562765_1_0" index="0" length="2.41" shape="789.14,342.94 789.59,341.52 790.26,340.90" speed="5.56"/>
   </edge>
   <edge function="internal" id=":1303562765_4">
      <lane id=":1303562765_4_0" index="0" length="2.41" shape="790.26,340.90 791.17,341.07 792.31,342.03" speed="5.56"/>
   </edge>
   <edge function="internal" id=":1303562765_2">
      <lane allow="delivery bicycle pedestrian" id=":1303562765_2_0" index="0" length="0.10" shape="792.28,341.95 792.31,342.03" speed="5.56"/>
   </edge>
   <edge function="internal" id=":1303562765_3">
      <lane allow="delivery bicycle pedestrian" id=":1303562765_3_0" index="0" length="2.41" shape="792.28,341.95 791.90,343.39 791.26,344.05" speed="5.56"/>
   </edge>
   <edge function="internal" id=":1303562765_5">
      <lane id=":1303562765_5_0" index="0" length="2.41" shape="791.26,344.05 790.34,343.92 789.16,343.02" speed="5.56"/>
   </edge>
   <edge function="internal" id=":1304240490_0">
      <lane disallow="tram rail_urban rail rail_electric ship" id=":1304240490_0_0" index="0" length="0.10" shape="238.40,543.44 238.40,543.45" speed="13.89"/>
   </edge>
   <edge function="internal" id=":1304240490_1">
      <lane disallow="tram rail_urban rail rail_electric ship" id=":1304240490_1_0" index="0" length="2.41" shape="238.40,543.44 237.51,544.64 236.67,545.01" speed="13.89"/>
   </edge>
   <edge function="internal" id=":1304240490_4">
      <lane id=":1304240490_4_0" index="0" length="2.41" shape="236.67,545.01 235.86,544.55 235.10,543.28" speed="13.89"/>
   </edge>
   <edge function="internal" id=":1304240490_2">
      <lane disallow="tram rail_urban rail rail_electric ship" id=":1304240490_2_0" index="0" length="0.10" shape="235.10,543.27 235.10,543.28" speed="13.89"/>
   </edge>
   <edge function="internal" id=":1304240490_3">
      <lane disallow="tram rail_urban rail rail_electric ship" id=":1304240490_3_0" index="0" length="2.41" shape="235.10,543.27 235.99,542.08 236.84,541.71" speed="13.89"/>
   </edge>
   <edge function="internal" id=":1304240490_5">
      <lane id=":1304240490_5_0" index="0" length="2.41" shape="236.84,541.71 237.64,542.17 238.40,543.45" speed="13.89"/>
   </edge>
   <edge function="internal" id=":1304240495_0">
      <lane disallow="tram rail_urban rail rail_electric ship" id=":1304240495_0_0" index="0" length="0.20" shape="101.86,376.39 101.66,376.35" speed="13.89"/>
   </edge>
   <edge function="internal" id=":1304240495_1">
      <lane disallow="tram rail_urban rail rail_electric ship" id=":1304240495_1_0" index="0" length="2.41" shape="101.86,376.39 100.85,375.29 100.65,374.39" speed="13.89"/>
   </edge>
   <edge function="internal" id=":1304240495_4">
      <lane id=":1304240495_4_0" index="0" length="2.41" shape="100.65,374.39 101.24,373.69 102.64,373.18" speed="13.89"/>
   </edge>
   <edge function="internal" id=":1304240495_2">
      <lane disallow="tram rail_urban rail rail_electric ship" id=":1304240495_2_0" index="0" length="0.62" shape="102.03,373.07 102.64,373.18" speed="13.89"/>
   </edge>
   <edge function="internal" id=":1304240495_3">
      <lane disallow="tram rail_urban rail rail_electric ship" id=":1304240495_3_0" index="0" length="2.41" shape="102.03,373.07 103.17,374.04 103.49,374.90" speed="13.89"/>
   </edge>
   <edge function="internal" id=":1304240495_5">
      <lane id=":1304240495_5_0" index="0" length="2.41" shape="103.49,374.90 102.98,375.67 101.66,376.35" speed="13.89"/>
   </edge>
   <edge function="internal" id=":1305076675_0">
      <lane disallow="tram rail_urban rail rail_electric ship" id=":1305076675_0_0" index="0" length="5.00" shape="114.76,266.45 114.35,265.15 113.62,264.28 112.57,263.87 111.21,263.89" speed="6.95"/>
   </edge>
   <edge function="internal" id=":1305076675_1">
      <lane disallow="tram rail_urban rail rail_electric ship" id=":1305076675_1_0" index="0" length="10.29" shape="114.76,266.45 114.70,263.63 115.55,261.46 117.31,259.94 119.98,259.06" speed="6.95"/>
   </edge>
   <edge function="internal" id=":1305076675_2">
      <lane allow="delivery bicycle pedestrian" id=":1305076675_2_0" index="0" length="4.82" shape="114.76,266.45 115.38,265.10 116.13,264.56 117.01,264.84 118.02,265.93" speed="5.56"/>
   </edge>
   <edge function="internal" id=":1305076675_3">
      <lane allow="delivery bicycle pedestrian" id=":1305076675_3_0" index="0" length="5.02" shape="120.55,262.31 119.25,262.74 118.40,263.48 117.99,264.55 118.02,265.93" speed="6.95"/>
   </edge>
   <edge function="internal" id=":1305076675_4">
      <lane disallow="tram rail_urban rail rail_electric ship" id=":1305076675_4_0" index="0" length="9.48" shape="120.55,262.31 111.21,263.89" speed="8.33"/>
   </edge>
   <edge function="internal" id=":1305076675_5">
      <lane disallow="tram rail_urban rail rail_electric ship" id=":1305076675_5_0" index="0" length="2.41" shape="120.55,262.31 119.19,261.71 118.64,260.97" speed="8.33"/>
   </edge>
   <edge function="internal" id=":1305076675_9">
      <lane id=":1305076675_9_0" index="0" length="2.41" shape="118.64,260.97 118.90,260.09 119.98,259.06" speed="8.33"/>
   </edge>
   <edge function="internal" id=":1305076675_6">
      <lane disallow="tram rail_urban rail rail_electric ship" id=":1305076675_6_0" index="0" length="9.43" shape="110.68,260.63 119.98,259.06" speed="8.33"/>
   </edge>
   <edge function="internal" id=":1305076675_7">
      <lane allow="delivery bicycle pedestrian" id=":1305076675_7_0" index="0" length="5.16" shape="110.68,260.63 113.51,260.58 115.67,261.45" speed="6.95"/>
   </edge>
   <edge function="internal" id=":1305076675_8">
      <lane disallow="tram rail_urban rail rail_electric ship" id=":1305076675_8_0" index="0" length="2.41" shape="110.68,260.63 112.03,261.25 112.57,262.00" speed="8.33"/>
   </edge>
   <edge function="internal" id=":1305076675_10">
      <lane id=":1305076675_10_0" index="0" length="5.16" shape="115.67,261.45 117.18,263.23 118.02,265.93" speed="6.95"/>
   </edge>
   <edge function="internal" id=":1305076675_11">
      <lane id=":1305076675_11_0" index="0" length="2.41" shape="112.57,262.00 112.30,262.88 111.21,263.89" speed="8.33"/>
   </edge>
   <edge function="internal" id=":1305076697_0">
      <lane allow="delivery bicycle pedestrian" id=":1305076697_0_0" index="0" length="4.82" shape="122.83,295.58 122.22,296.94 121.47,297.48 120.59,297.20 119.58,296.11" speed="5.56"/>
   </edge>
   <edge function="internal" id=":1305081497_0">
      <lane disallow="tram rail_urban rail rail_electric ship" id=":1305081497_0_0" index="0" length="9.54" shape="165.78,320.35 156.34,318.97" speed="13.89"/>
   </edge>
   <edge function="internal" id=":1305081497_1">
      <lane allow="delivery bicycle pedestrian" id=":1305081497_1_0" index="0" length="5.25" shape="165.78,320.35 163.10,319.56 161.30,318.08 161.25,317.97" speed="9.73"/>
   </edge>
   <edge function="internal" id=":1305081497_2">
      <lane disallow="tram rail_urban rail rail_electric ship" id=":1305081497_2_0" index="0" length="2.41" shape="165.78,320.35 164.67,319.36 164.38,318.49" speed="13.89"/>
   </edge>
   <edge function="internal" id=":1305081497_9">
      <lane id=":1305081497_9_0" index="0" length="5.10" shape="161.25,317.97 160.37,315.91 160.32,313.05" speed="9.73"/>
   </edge>
   <edge function="internal" id=":1305081497_10">
      <lane id=":1305081497_10_0" index="0" length="2.41" shape="164.38,318.49 164.90,317.73 166.24,317.08" speed="13.89"/>
   </edge>
   <edge function="internal" id=":1305081497_3">
      <lane disallow="tram rail_urban rail rail_electric ship" id=":1305081497_3_0" index="0" length="5.11" shape="163.59,313.44 163.61,314.87 164.06,315.96 164.94,316.69 166.24,317.08" speed="9.73"/>
   </edge>
   <edge function="internal" id=":1305081497_4">
      <lane disallow="tram rail_urban rail rail_electric ship" id=":1305081497_4_0" index="0" length="10.48" shape="163.59,313.44 162.85,316.23 161.39,318.08 159.22,318.99 156.34,318.97" speed="9.73"/>
   </edge>
   <edge function="internal" id=":1305081497_5">
      <lane allow="delivery bicycle pedestrian" id=":1305081497_5_0" index="0" length="4.82" shape="163.59,313.44 162.63,314.57 161.76,314.88 160.99,314.38 160.32,313.05" speed="5.56"/>
   </edge>
   <edge function="internal" id=":1305081497_6">
      <lane allow="delivery bicycle pedestrian" id=":1305081497_6_0" index="0" length="5.04" shape="156.83,315.71 158.21,315.72 159.26,315.28 159.96,314.39 160.32,313.05" speed="9.73"/>
   </edge>
   <edge function="internal" id=":1305081497_7">
      <lane disallow="tram rail_urban rail rail_electric ship" id=":1305081497_7_0" index="0" length="9.52" shape="156.83,315.71 166.24,317.08" speed="13.89"/>
   </edge>
   <edge function="internal" id=":1305081497_8">
      <lane disallow="tram rail_urban rail rail_electric ship" id=":1305081497_8_0" index="0" length="2.41" shape="156.83,315.71 157.93,316.71 158.21,317.58" speed="13.89"/>
   </edge>
   <edge function="internal" id=":1305081497_11">
      <lane id=":1305081497_11_0" index="0" length="2.41" shape="158.21,317.58 157.68,318.34 156.34,318.97" speed="13.89"/>
   </edge>
   <edge function="internal" id=":1305081518_0">
      <lane allow="delivery bicycle pedestrian" id=":1305081518_0_0" index="0" length="6.52" shape="173.45,251.82 172.22,252.26 171.26,253.26 170.58,254.81 170.17,256.91" speed="6.95"/>
   </edge>
   <edge function="internal" id=":1305081518_1">
      <lane disallow="tram rail_urban rail rail_electric ship" id=":1305081518_1_0" index="0" length="9.96" shape="173.45,251.82 163.65,253.64" speed="8.33"/>
   </edge>
   <edge function="internal" id=":1305081518_2">
      <lane disallow="tram rail_urban rail rail_electric ship" id=":1305081518_2_0" index="0" length="2.41" shape="173.45,251.82 172.12,251.15 171.61,250.39" speed="8.33"/>
   </edge>
   <edge function="internal" id=":1305081518_9">
      <lane id=":1305081518_9_0" index="0" length="2.41" shape="171.61,250.39 171.92,249.52 173.04,248.54" speed="8.33"/>
   </edge>
   <edge function="internal" id=":1305081518_3">
      <lane disallow="tram rail_urban rail rail_electric ship" id=":1305081518_3_0" index="0" length="10.30" shape="162.92,250.42 165.86,249.75 167.95,249.30 170.05,248.94 173.04,248.54" speed="8.33"/>
   </edge>
   <edge function="internal" id=":1305081518_4">
      <lane allow="delivery bicycle pedestrian" id=":1305081518_4_0" index="0" length="6.00" shape="162.92,250.42 166.45,250.13 168.73,251.07" speed="6.95"/>
   </edge>
   <edge function="internal" id=":1305081518_5">
      <lane disallow="tram rail_urban rail rail_electric ship" id=":1305081518_5_0" index="0" length="2.53" shape="162.92,250.42 164.31,250.95 164.90,251.66 164.87,251.78" speed="8.33"/>
   </edge>
   <edge function="internal" id=":1305081518_10">
      <lane id=":1305081518_10_0" index="0" length="6.23" shape="168.73,251.07 168.83,251.11 170.07,253.37 170.17,256.91" speed="6.95"/>
   </edge>
   <edge function="internal" id=":1305081518_11">
      <lane id=":1305081518_11_0" index="0" length="2.28" shape="164.87,251.78 164.68,252.56 163.65,253.64" speed="8.33"/>
   </edge>
   <edge function="internal" id=":1305081518_6">
      <lane disallow="tram rail_urban rail rail_electric ship" id=":1305081518_6_0" index="0" length="5.46" shape="166.89,256.54 166.85,254.96 166.29,253.95 165.23,253.51 163.65,253.64" speed="6.95"/>
   </edge>
   <edge function="internal" id=":1305081518_7">
      <lane disallow="tram rail_urban rail rail_electric ship" id=":1305081518_7_0" index="0" length="10.95" shape="166.89,256.54 167.59,253.29 168.85,250.87 170.66,249.29 173.04,248.54" speed="6.95"/>
   </edge>
   <edge function="internal" id=":1305081518_8">
      <lane allow="delivery bicycle pedestrian" id=":1305081518_8_0" index="0" length="4.82" shape="166.89,256.54 167.85,255.40 168.72,255.08 169.49,255.59 170.17,256.91" speed="5.56"/>
   </edge>
   <edge function="internal" id=":1305104266_0">
      <lane allow="delivery bicycle pedestrian" id=":1305104266_0_0" index="0" length="6.48" shape="746.88,305.55 740.86,307.94" speed="5.56"/>
   </edge>
   <edge function="internal" id=":1305104266_1">
      <lane allow="delivery bicycle pedestrian" id=":1305104266_1_0" index="0" length="4.82" shape="746.88,305.55 745.42,305.28 744.71,304.68 744.77,303.76 745.58,302.51" speed="5.56"/>
   </edge>
   <edge function="internal" id=":1305104266_2">
      <lane allow="delivery bicycle pedestrian" id=":1305104266_2_0" index="0" length="5.08" shape="741.56,300.76 742.21,302.00 743.10,302.71 744.22,302.88 745.58,302.51" speed="5.56"/>
   </edge>
   <edge function="internal" id=":1305104266_3">
      <lane allow="delivery bicycle pedestrian" id=":1305104266_3_0" index="0" length="7.94" shape="741.56,300.76 742.33,303.51 742.47,305.62 741.98,307.10 740.86,307.94" speed="5.56"/>
   </edge>
   <edge function="internal" id=":1305104266_4">
      <lane allow="delivery bicycle pedestrian" id=":1305104266_4_0" index="0" length="6.29" shape="739.73,304.84 745.58,302.51" speed="5.56"/>
   </edge>
   <edge function="internal" id=":1305104266_5">
      <lane allow="delivery bicycle pedestrian" id=":1305104266_5_0" index="0" length="4.82" shape="739.73,304.84 741.17,305.19 741.84,305.83 741.74,306.74 740.86,307.94" speed="5.56"/>
   </edge>
   <edge function="internal" id=":1305104352_0">
      <lane disallow="tram rail_urban rail rail_electric ship" id=":1305104352_0_0" index="0" length="0.10" shape="489.79,147.13 489.79,147.13" speed="8.33"/>
   </edge>
   <edge function="internal" id=":1305104376_0">
      <lane allow="delivery bicycle pedestrian" id=":1305104376_0_0" index="0" length="3.53" shape="754.72,301.89 754.96,301.91 755.60,301.72 756.62,301.34 758.04,300.74" speed="9.72"/>
   </edge>
   <edge function="internal" id=":1305104376_1">
      <lane disallow="tram rail_urban rail rail_electric ship" id=":1305104376_1_0" index="0" length="4.11" shape="754.72,301.89 753.40,298.41" speed="13.89"/>
      <lane disallow="tram rail_urban rail rail_electric ship" id=":1305104376_1_1" index="1" length="4.11" shape="757.79,300.69 756.20,296.47" speed="13.89"/>
   </edge>
   <edge function="internal" id=":1305104376_3">
      <lane disallow="tram rail_urban rail rail_electric ship" id=":1305104376_3_0" index="0" length="2.41" shape="757.79,300.69 758.11,299.23 758.73,298.55" speed="13.89"/>
   </edge>
   <edge function="internal" id=":1305104376_11">
      <lane id=":1305104376_11_0" index="0" length="2.41" shape="758.73,298.55 759.65,298.63 760.87,299.48" speed="13.89"/>
   </edge>
   <edge function="internal" id=":1305104376_4">
      <lane disallow="tram rail_urban rail rail_electric ship" id=":1305104376_4_0" index="0" length="3.06" shape="762.86,295.45 763.94,298.28" speed="13.89"/>
      <lane disallow="tram rail_urban rail rail_electric ship" id=":1305104376_4_1" index="1" length="3.06" shape="759.77,296.60 760.87,299.48" speed="13.89"/>
   </edge>
   <edge function="internal" id=":1305104376_6">
      <lane allow="delivery bicycle pedestrian" id=":1305104376_6_0" index="0" length="3.70" shape="759.77,296.60 760.07,297.96 759.88,299.10 759.20,300.03" speed="9.72"/>
   </edge>
   <edge function="internal" id=":1305104376_7">
      <lane disallow="tram rail_urban rail rail_electric ship" id=":1305104376_7_0" index="0" length="1.96" shape="759.77,296.60 758.83,297.91 758.51,298.05" speed="13.89"/>
   </edge>
   <edge function="internal" id=":1305104376_12">
      <lane id=":1305104376_12_0" index="0" length="1.37" shape="759.20,300.03 758.04,300.74" speed="9.72"/>
   </edge>
   <edge function="internal" id=":1305104376_13">
      <lane id=":1305104376_13_0" index="0" length="3.25" shape="758.51,298.05 757.92,298.32 757.04,297.84 756.20,296.47" speed="13.89"/>
   </edge>
   <edge function="internal" id=":1305104376_8">
      <lane disallow="tram rail_urban rail rail_electric ship" id=":1305104376_8_0" index="0" length="3.24" shape="756.44,297.84 755.20,298.33 754.28,298.59 753.68,298.61 753.40,298.41" speed="9.72"/>
   </edge>
   <edge function="internal" id=":1305104376_9">
      <lane disallow="tram rail_urban rail rail_electric ship" id=":1305104376_9_0" index="0" length="5.42" shape="756.44,297.84 757.93,297.42 759.17,297.55 760.14,298.24 760.87,299.48" speed="9.72"/>
   </edge>
   <edge function="internal" id=":1305104376_10">
      <lane allow="delivery bicycle pedestrian" id=":1305104376_10_0" index="0" length="4.84" shape="756.44,297.84 757.93,297.97 758.69,298.49 758.73,299.42 758.04,300.74" speed="5.56"/>
   </edge>
   <edge function="internal" id=":1305104384_0">
      <lane allow="delivery bicycle pedestrian" id=":1305104384_0_0" index="0" length="4.82" shape="711.29,408.51 712.53,407.69 713.45,407.63 714.05,408.33 714.33,409.79" speed="5.56"/>
   </edge>
   <edge function="internal" id=":1305104385_0">
      <lane allow="delivery bicycle pedestrian" id=":1305104385_0_0" index="0" length="9.48" shape="714.94,321.01 708.92,313.69" speed="5.56"/>
   </edge>
   <edge function="internal" id=":1305104385_1">
      <lane allow="delivery bicycle pedestrian" id=":1305104385_1_0" index="0" length="8.56" shape="714.94,321.01 713.54,318.39 713.11,316.31 713.66,314.77 715.19,313.76" speed="5.56"/>
   </edge>
   <edge function="internal" id=":1305104385_2">
      <lane allow="delivery bicycle pedestrian" id=":1305104385_2_0" index="0" length="8.41" shape="716.32,316.86 714.78,317.06 713.03,316.59 711.08,315.47 708.92,313.69" speed="5.56"/>
   </edge>
   <edge function="internal" id=":1305104385_3">
      <lane allow="delivery bicycle pedestrian" id=":1305104385_3_0" index="0" length="4.82" shape="716.32,316.86 714.88,316.51 714.21,315.88 714.31,314.96 715.19,313.76" speed="5.56"/>
   </edge>
   <edge function="internal" id=":1305104392_0">
      <lane allow="delivery bicycle pedestrian" id=":1305104392_0_0" index="0" length="4.82" shape="716.71,404.11 715.48,404.93 714.55,404.99 713.95,404.29 713.67,402.83" speed="5.56"/>
   </edge>
   <edge function="internal" id=":1305104407_0">
      <lane disallow="tram rail_urban rail rail_electric ship" id=":1305104407_0_0" index="0" length="0.10" shape="486.93,150.89 486.93,150.89" speed="8.33"/>
   </edge>
   <edge function="internal" id=":1305129400_0">
      <lane disallow="tram rail_urban rail rail_electric ship" id=":1305129400_0_0" index="0" length="9.65" shape="548.05,362.74 539.34,358.59" speed="22.22"/>
   </edge>
   <edge function="internal" id=":1305129400_1">
      <lane allow="delivery bicycle pedestrian" id=":1305129400_1_0" index="0" length="4.88" shape="548.05,362.74 545.97,361.29 544.72,359.31" speed="13.89"/>
   </edge>
   <edge function="internal" id=":1305129400_2">
      <lane disallow="tram rail_urban rail rail_electric ship" id=":1305129400_2_0" index="0" length="2.41" shape="548.05,362.74 547.29,361.46 547.27,360.54" speed="22.22"/>
   </edge>
   <edge function="internal" id=":1305129400_9">
      <lane id=":1305129400_9_0" index="0" length="5.62" shape="544.72,359.31 544.31,356.80 544.73,353.75" speed="13.89"/>
   </edge>
   <edge function="internal" id=":1305129400_10">
      <lane id=":1305129400_10_0" index="0" length="2.41" shape="547.27,360.54 548.00,359.97 549.47,359.75" speed="22.22"/>
   </edge>
   <edge function="internal" id=":1305129400_3">
      <lane disallow="tram rail_urban rail rail_electric ship" id=":1305129400_3_0" index="0" length="5.90" shape="547.93,354.57 547.65,356.38 547.81,357.85 548.42,358.98 549.47,359.75" speed="13.89"/>
   </edge>
   <edge function="internal" id=":1305129400_4">
      <lane disallow="tram rail_urban rail rail_electric ship" id=":1305129400_4_0" index="0" length="11.36" shape="547.93,354.57 546.71,357.52 544.87,359.17 542.41,359.53 539.34,358.59" speed="13.89"/>
   </edge>
   <edge function="internal" id=":1305129400_5">
      <lane allow="delivery bicycle pedestrian" id=":1305129400_5_0" index="0" length="4.82" shape="547.93,354.57 546.83,355.56 545.93,355.76 545.23,355.16 544.73,353.75" speed="5.56"/>
   </edge>
   <edge function="internal" id=":1305129400_6">
      <lane allow="delivery bicycle pedestrian" id=":1305129400_6_0" index="0" length="5.25" shape="540.77,355.62 542.19,356.05 543.32,355.88 544.17,355.12 544.73,353.75" speed="13.89"/>
   </edge>
   <edge function="internal" id=":1305129400_7">
      <lane disallow="tram rail_urban rail rail_electric ship" id=":1305129400_7_0" index="0" length="9.63" shape="540.77,355.62 549.47,359.75" speed="22.22"/>
   </edge>
   <edge function="internal" id=":1305129400_8">
      <lane disallow="tram rail_urban rail rail_electric ship" id=":1305129400_8_0" index="0" length="2.41" shape="540.77,355.62 541.53,356.90 541.54,357.82" speed="22.22"/>
   </edge>
   <edge function="internal" id=":1305129400_11">
      <lane id=":1305129400_11_0" index="0" length="2.41" shape="541.54,357.82 540.81,358.38 539.34,358.59" speed="22.22"/>
   </edge>
   <edge function="internal" id=":1305129442_0">
      <lane allow="delivery bicycle pedestrian" id=":1305129442_0_0" index="0" length="4.82" shape="563.47,360.90 564.69,360.04 565.60,359.95 566.23,360.63 566.56,362.08" speed="5.56"/>
   </edge>
   <edge function="internal" id=":1305129492_0">
      <lane disallow="tram rail_urban rail rail_electric ship" id=":1305129492_0_0" index="0" length="4.82" shape="818.23,684.86 818.25,686.35 817.81,687.16 816.90,687.28 815.51,686.73" speed="13.89"/>
   </edge>
   <edge function="internal" id=":1305129542_0">
      <lane disallow="tram rail_urban rail rail_electric ship" id=":1305129542_0_0" index="0" length="9.49" shape="565.93,371.24 557.37,367.15" speed="22.22"/>
   </edge>
   <edge function="internal" id=":1305129542_1">
      <lane allow="delivery bicycle pedestrian" id=":1305129542_1_0" index="0" length="5.02" shape="565.93,371.24 563.71,369.72 562.46,367.76" speed="13.89"/>
   </edge>
   <edge function="internal" id=":1305129542_2">
      <lane disallow="tram rail_urban rail rail_electric ship" id=":1305129542_2_0" index="0" length="2.41" shape="565.93,371.24 565.18,369.96 565.16,369.03" speed="22.22"/>
   </edge>
   <edge function="internal" id=":1305129542_9">
      <lane id=":1305129542_9_0" index="0" length="5.32" shape="562.46,367.76 562.17,365.36 562.85,362.53" speed="13.89"/>
   </edge>
   <edge function="internal" id=":1305129542_10">