<?xml version="1.0" encoding="utf-8"?><!-- generated on 10/11/17 17:50:14 by SUMO netconvert Version 0.25.0
<?xml version="1.0" encoding="UTF-8"?>

<configuration xmlns:xsi="http://www.w3.org/2001/XMLSchema-instance" xsi:noNamespaceSchemaLocation="http://sumo.dlr.de/xsd/netconvertConfiguration.xsd">

    <input>
        <type-files value="osmNetconvert.typ.xml"/>
        <osm-files value="B_Haselhorst_urban_800.osm"/>
    </input>

    <output>
        <output-file value="B_Haselhorst_urban_800.net.xml"/>
    </output>

    <projection>
        <proj.utm value="true"/>
    </projection>

    <edge_removal>
        <remove-edges.by-type value="highway.track,highway.unsurfaced,highway.raceway,highway.bridleway,highway.path,highway.footway,highway.pedestrian,highway.cycleway,highway.step,highway.steps,highway.stairs,highway.bus_guideway,highway.ford,railway.rail,railway.tram,railway.light_rail,railway.subway,railway.preserved,railway.narrow_gauge,railway.monorail,railway.funicular"/>
    </edge_removal>

</configuration>
-->
<net version="0.25">
   <location convBoundary="0.00,0.00,815.65,750.75" netOffset="-380122.93,-5822550.66" origBoundary="13.232302,52.540002,13.244286,52.546683" projParameter="+proj=utm +zone=33 +ellps=WGS84 +datum=WGS84 +units=m +no_defs"/>
   <type allow="pedestrian" id="highway.bridleway" numLanes="1" oneway="1" priority="1" speed="2.78" width="2.00"/>
   <type allow="bus" id="highway.bus_guideway" numLanes="1" oneway="1" priority="1" speed="8.33"/>
   <type allow="bicycle" id="highway.cycleway" numLanes="1" oneway="0" priority="1" speed="5.56" width="1.00"/>
   <type allow="pedestrian" id="highway.footway" numLanes="1" oneway="1" priority="1" speed="8.33" width="2.00"/>
   <type allow="army" id="highway.ford" numLanes="1" oneway="0" priority="1" speed="2.78"/>
   <type disallow="tram rail_urban rail rail_electric ship" id="highway.living_street" numLanes="1" oneway="0" priority="3" speed="2.78"/>
   <type allow="private emergency authority army vip passenger hov taxi bus coach delivery truck trailer motorcycle evehicle custom1 custom2" id="highway.motorway" numLanes="2" oneway="1" priority="13" speed="44.44"/>
   <type allow="private emergency authority army vip passenger hov taxi bus coach delivery truck trailer motorcycle evehicle custom1 custom2" id="highway.motorway_link" numLanes="1" oneway="1" priority="12" speed="22.22"/>
   <type allow="bicycle pedestrian" id="highway.path" numLanes="1" oneway="1" priority="1" speed="2.78" width="2.00"/>
   <type allow="pedestrian" id="highway.pedestrian" numLanes="1" oneway="1" priority="1" speed="8.33" width="2.00"/>
   <type disallow="tram rail_urban rail rail_electric ship" id="highway.primary" numLanes="2" oneway="0" priority="9" speed="27.78"/>
   <type disallow="tram rail_urban rail rail_electric ship" id="highway.primary_link" numLanes="1" oneway="0" priority="8" speed="22.22"/>
   <type allow="vip" id="highway.raceway" numLanes="2" oneway="0" priority="14" speed="83.33"/>
   <type disallow="tram rail_urban rail rail_electric ship" id="highway.residential" numLanes="1" oneway="0" priority="4" speed="13.89"/>
   <type disallow="tram rail_urban rail rail_electric ship" id="highway.secondary" numLanes="2" oneway="0" priority="7" speed="27.78"/>
   <type disallow="tram rail_urban rail rail_electric ship" id="highway.secondary_link" numLanes="1" oneway="0" priority="6" speed="22.22"/>
   <type allow="delivery bicycle pedestrian" id="highway.service" numLanes="1" oneway="0" priority="2" speed="5.56"/>
   <type disallow="tram rail_urban rail rail_electric ship" id="highway.services" numLanes="1" oneway="0" priority="1" speed="8.33"/>
   <type allow="pedestrian" id="highway.stairs" numLanes="1" oneway="1" priority="1" speed="1.39" width="2.00"/>
   <type allow="pedestrian" id="highway.step" numLanes="1" oneway="1" priority="1" speed="1.39" width="2.00"/>
   <type allow="pedestrian" id="highway.steps" numLanes="1" oneway="1" priority="1" speed="1.39" width="2.00"/>
   <type disallow="tram rail_urban rail rail_electric ship" id="highway.tertiary" numLanes="1" oneway="0" priority="6" speed="22.22"/>
   <type disallow="tram rail_urban rail rail_electric ship" id="highway.tertiary_link" numLanes="1" oneway="0" priority="5" speed="22.22"/>
   <type disallow="tram rail_urban rail rail_electric ship" id="highway.track" numLanes="1" oneway="0" priority="1" speed="5.56"/>
   <type disallow="tram rail_urban rail rail_electric bicycle pedestrian ship" id="highway.trunk" numLanes="2" oneway="0" priority="11" speed="27.78"/>
   <type disallow="tram rail_urban rail rail_electric bicycle pedestrian ship" id="highway.trunk_link" numLanes="1" oneway="0" priority="10" speed="22.22"/>
   <type disallow="tram rail_urban rail rail_electric ship" id="highway.unclassified" numLanes="1" oneway="0" priority="5" speed="13.89"/>
   <type disallow="tram rail_urban rail rail_electric ship" id="highway.unsurfaced" numLanes="1" oneway="0" priority="1" speed="8.33"/>
   <type allow="rail_urban" id="railway.light_rail" numLanes="1" oneway="1" priority="15" speed="27.78"/>
   <type allow="rail" id="railway.preserved" numLanes="1" oneway="1" priority="15" speed="27.78"/>
   <type allow="rail rail_electric" id="railway.rail" numLanes="1" oneway="1" priority="15" speed="83.33"/>
   <type allow="rail_urban" id="railway.subway" numLanes="1" oneway="1" priority="15" speed="27.78"/>
   <type allow="tram" id="railway.tram" numLanes="1" oneway="1" priority="15" speed="13.89"/>
   <edge function="internal" id=":1364770385_0">
      <lane disallow="tram rail_urban rail rail_electric ship" id=":1364770385_0_0" index="0" length="0.10" shape="639.28,98.45 639.27,98.45" speed="8.33"/>
   </edge>
   <edge function="internal" id=":1364770385_1">
      <lane disallow="tram rail_urban rail rail_electric ship" id=":1364770385_1_0" index="0" length="2.41" shape="639.28,98.45 638.41,97.25 638.31,96.33" speed="8.33"/>
   </edge>
   <edge function="internal" id=":1364770385_4">
      <lane id=":1364770385_4_0" index="0" length="2.41" shape="638.31,96.33 638.98,95.70 640.43,95.36" speed="8.33"/>
   </edge>
   <edge function="internal" id=":1364770385_2">
      <lane disallow="tram rail_urban rail rail_electric ship" id=":1364770385_2_0" index="0" length="0.10" shape="640.44,95.36 640.43,95.36" speed="8.33"/>
   </edge>
   <edge function="internal" id=":1364770385_3">
      <lane disallow="tram rail_urban rail rail_electric ship" id=":1364770385_3_0" index="0" length="2.41" shape="640.44,95.36 641.30,96.57 641.40,97.49" speed="8.33"/>
   </edge>
   <edge function="internal" id=":1364770385_5">
      <lane id=":1364770385_5_0" index="0" length="2.41" shape="641.40,97.49 640.72,98.11 639.27,98.45" speed="8.33"/>
   </edge>
   <edge function="internal" id=":1367322591_0">
      <lane disallow="tram rail_urban rail rail_electric ship" id=":1367322591_0_0" index="0" length="0.10" shape="750.99,427.73 750.99,427.72" speed="8.33"/>
   </edge>
   <edge function="internal" id=":1367322591_1">
      <lane disallow="tram rail_urban rail rail_electric ship" id=":1367322591_1_0" index="0" length="2.41" shape="750.99,427.73 750.15,426.50 750.07,425.58" speed="8.33"/>
   </edge>
   <edge function="internal" id=":1367322591_4">
      <lane id=":1367322591_4_0" index="0" length="2.41" shape="750.07,425.58 750.75,424.97 752.21,424.66" speed="8.33"/>
   </edge>
   <edge function="internal" id=":1367322591_2">
      <lane disallow="tram rail_urban rail rail_electric ship" id=":1367322591_2_0" index="0" length="0.10" shape="752.22,424.66 752.21,424.66" speed="8.33"/>
   </edge>
   <edge function="internal" id=":1367322591_3">
      <lane disallow="tram rail_urban rail rail_electric ship" id=":1367322591_3_0" index="0" length="2.41" shape="752.22,424.66 753.06,425.89 753.13,426.81" speed="8.33"/>
   </edge>
   <edge function="internal" id=":1367322591_5">
      <lane id=":1367322591_5_0" index="0" length="2.41" shape="753.13,426.81 752.44,427.42 750.99,427.72" speed="8.33"/>
   </edge>
   <edge function="internal" id=":1367322626_0">
      <lane disallow="tram rail_urban rail rail_electric ship" id=":1367322626_0_0" index="0" length="0.10" shape="658.39,561.84 658.39,561.84" speed="8.33"/>
   </edge>
   <edge function="internal" id=":1367322626_1">
      <lane disallow="tram rail_urban rail rail_electric ship" id=":1367322626_1_0" index="0" length="2.41" shape="658.39,561.84 657.23,560.92 656.89,560.06" speed="8.33"/>
   </edge>
   <edge function="internal" id=":1367322626_4">
      <lane id=":1367322626_4_0" index="0" length="2.41" shape="656.89,560.06 657.37,559.27 658.67,558.55" speed="8.33"/>
   </edge>
   <edge function="internal" id=":1367322626_2">
      <lane disallow="tram rail_urban rail rail_electric ship" id=":1367322626_2_0" index="0" length="0.10" shape="658.67,558.55 658.67,558.55" speed="8.33"/>
   </edge>
   <edge function="internal" id=":1367322626_3">
      <lane disallow="tram rail_urban rail rail_electric ship" id=":1367322626_3_0" index="0" length="2.41" shape="658.67,558.55 659.83,559.48 660.18,560.34" speed="8.33"/>
   </edge>
   <edge function="internal" id=":1367322626_5">
      <lane id=":1367322626_5_0" index="0" length="2.41" shape="660.18,560.34 659.69,561.13 658.39,561.84" speed="8.33"/>
   </edge>
   <edge function="internal" id=":1367322784_0">
      <lane disallow="tram rail_urban rail rail_electric ship" id=":1367322784_0_0" index="0" length="0.10" shape="728.97,418.87 728.96,418.86" speed="8.33"/>
   </edge>
   <edge function="internal" id=":1367322784_1">
      <lane disallow="tram rail_urban rail rail_electric ship" id=":1367322784_1_0" index="0" length="2.41" shape="728.97,418.87 728.12,417.64 728.05,416.72" speed="8.33"/>
   </edge>
   <edge function="internal" id=":1367322784_4">
      <lane id=":1367322784_4_0" index="0" length="2.41" shape="728.05,416.72 728.74,416.11 730.19,415.80" speed="8.33"/>
   </edge>
   <edge function="internal" id=":1367322784_2">
      <lane disallow="tram rail_urban rail rail_electric ship" id=":1367322784_2_0" index="0" length="0.10" shape="730.20,415.81 730.19,415.80" speed="8.33"/>
   </edge>
   <edge function="internal" id=":1367322784_3">
      <lane disallow="tram rail_urban rail rail_electric ship" id=":1367322784_3_0" index="0" length="2.41" shape="730.20,415.81 731.04,417.04 731.11,417.95" speed="8.33"/>
   </edge>
   <edge function="internal" id=":1367322784_5">
      <lane id=":1367322784_5_0" index="0" length="2.41" shape="731.11,417.95 730.42,418.56 728.96,418.86" speed="8.33"/>
   </edge>
   <edge function="internal" id=":1367322807_0">
      <lane disallow="tram rail_urban rail rail_electric ship" id=":1367322807_0_0" index="0" length="0.10" shape="734.06,568.22 734.06,568.22" speed="8.33"/>
   </edge>
   <edge function="internal" id=":1367322807_1">
      <lane disallow="tram rail_urban rail rail_electric ship" id=":1367322807_1_0" index="0" length="2.41" shape="734.06,568.22 732.90,567.30 732.55,566.44" speed="8.33"/>
   </edge>
   <edge function="internal" id=":1367322807_4">
      <lane id=":1367322807_4_0" index="0" length="2.41" shape="732.55,566.44 733.04,565.65 734.34,564.94" speed="8.33"/>
   </edge>
   <edge function="internal" id=":1367322807_2">
      <lane disallow="tram rail_urban rail rail_electric ship" id=":1367322807_2_0" index="0" length="0.10" shape="734.34,564.94 734.34,564.94" speed="8.33"/>
   </edge>
   <edge function="internal" id=":1367322807_3">
      <lane disallow="tram rail_urban rail rail_electric ship" id=":1367322807_3_0" index="0" length="2.41" shape="734.34,564.94 735.50,565.86 735.84,566.72" speed="8.33"/>
   </edge>
   <edge function="internal" id=":1367322807_5">
      <lane id=":1367322807_5_0" index="0" length="2.41" shape="735.84,566.72 735.36,567.51 734.06,568.22" speed="8.33"/>
   </edge>
   <edge function="internal" id=":1367322819_0">
      <lane disallow="tram rail_urban rail rail_electric ship" id=":1367322819_0_0" index="0" length="0.10" shape="679.93,399.14 679.93,399.14" speed="8.33"/>
   </edge>
   <edge function="internal" id=":1367322819_1">
      <lane disallow="tram rail_urban rail rail_electric ship" id=":1367322819_1_0" index="0" length="2.41" shape="679.93,399.14 679.09,397.91 679.02,396.99" speed="8.33"/>
   </edge>
   <edge function="internal" id=":1367322819_4">
      <lane id=":1367322819_4_0" index="0" length="2.41" shape="679.02,396.99 679.71,396.38 681.16,396.08" speed="8.33"/>
   </edge>
   <edge function="internal" id=":1367322819_2">
      <lane disallow="tram rail_urban rail rail_electric ship" id=":1367322819_2_0" index="0" length="0.10" shape="681.16,396.08 681.16,396.08" speed="8.33"/>
   </edge>
   <edge function="internal" id=":1367322819_3">
      <lane disallow="tram rail_urban rail rail_electric ship" id=":1367322819_3_0" index="0" length="2.41" shape="681.16,396.08 682.00,397.30 682.08,398.22" speed="8.33"/>
   </edge>
   <edge function="internal" id=":1367322819_5">
      <lane id=":1367322819_5_0" index="0" length="2.41" shape="682.08,398.22 681.39,398.84 679.93,399.14" speed="8.33"/>
   </edge>
   <edge function="internal" id=":1367322840_0">
      <lane disallow="tram rail_urban rail rail_electric ship" id=":1367322840_0_0" index="0" length="0.10" shape="776.82,466.16 776.82,466.16" speed="8.33"/>
   </edge>
   <edge function="internal" id=":1368951153_0">
      <lane disallow="tram rail_urban rail rail_electric ship" id=":1368951153_0_0" index="0" length="6.11" shape="728.87,418.83 723.20,416.55" speed="8.33"/>
   </edge>
   <edge function="internal" id=":1368951153_1">
      <lane allow="delivery bicycle pedestrian" id=":1368951153_1_0" index="0" length="3.05" shape="728.87,418.83 727.76,417.95 727.33,416.49 727.34,416.38" speed="6.95"/>
   </edge>
   <edge function="internal" id=":1368951153_2">
      <lane disallow="tram rail_urban rail rail_electric ship" id=":1368951153_2_0" index="0" length="2.41" shape="728.87,418.83 728.03,417.60 727.96,416.68" speed="8.33"/>
   </edge>
   <edge function="internal" id=":1368951153_9">
      <lane id=":1368951153_9_0" index="0" length="4.73" shape="727.34,416.38 727.57,414.44 728.49,411.81" speed="6.95"/>
   </edge>
   <edge function="internal" id=":1368951153_10">
      <lane id=":1368951153_10_0" index="0" length="2.41" shape="727.96,416.68 728.65,416.07 730.11,415.77" speed="8.33"/>
   </edge>
   <edge function="internal" id=":1368951153_3">
      <lane disallow="tram rail_urban rail rail_electric ship" id=":1368951153_3_0" index="0" length="3.00" shape="731.52,413.12 730.11,415.77" speed="6.95"/>
   </edge>
   <edge function="internal" id=":1368951153_4">
      <lane disallow="tram rail_urban rail rail_electric ship" id=":1368951153_4_0" index="0" length="10.20" shape="731.52,413.12 730.07,415.50 728.20,416.86 725.91,417.21 723.20,416.55" speed="6.95"/>
   </edge>
   <edge function="internal" id=":1368951153_5">
      <lane allow="delivery bicycle pedestrian" id=":1368951153_5_0" index="0" length="4.82" shape="731.52,413.12 730.27,413.93 729.35,413.98 728.76,413.28 728.49,411.81" speed="5.56"/>
   </edge>
   <edge function="internal" id=":1368951153_6">
      <lane allow="delivery bicycle pedestrian" id=":1368951153_6_0" index="0" length="4.97" shape="724.44,413.48 725.75,413.81 726.87,413.64 727.78,412.97 728.49,411.81" speed="6.95"/>
   </edge>
   <edge function="internal" id=":1368951153_7">
      <lane disallow="tram rail_urban rail rail_electric ship" id=":1368951153_7_0" index="0" length="6.11" shape="724.44,413.48 730.11,415.77" speed="8.33"/>
   </edge>
   <edge function="internal" id=":1368951153_8">
      <lane disallow="tram rail_urban rail rail_electric ship" id=":1368951153_8_0" index="0" length="2.41" shape="724.44,413.48 725.28,414.71 725.35,415.63" speed="8.33"/>
   </edge>
   <edge function="internal" id=":1368951153_11">
      <lane id=":1368951153_11_0" index="0" length="2.41" shape="725.35,415.63 724.66,416.24 723.20,416.55" speed="8.33"/>
   </edge>
   <edge function="internal" id=":1368951197_0">
      <lane disallow="tram rail_urban rail rail_electric ship" id=":1368951197_0_0" index="0" length="5.74" shape="756.41,429.90 751.09,427.76" speed="8.33"/>
   </edge>
   <edge function="internal" id=":1368951197_1">
      <lane allow="delivery bicycle pedestrian" id=":1368951197_1_0" index="0" length="5.19" shape="756.41,429.90 753.94,428.47 752.54,426.60" speed="6.95"/>
   </edge>
   <edge function="internal" id=":1368951197_2">
      <lane disallow="tram rail_urban rail rail_electric ship" id=":1368951197_2_0" index="0" length="2.41" shape="756.41,429.90 755.57,428.67 755.50,427.75" speed="8.33"/>
   </edge>
   <edge function="internal" id=":1368951197_9">
      <lane id=":1368951197_9_0" index="0" length="5.19" shape="752.54,426.60 752.19,424.28 752.91,421.52" speed="6.95"/>
   </edge>
   <edge function="internal" id=":1368951197_10">
      <lane id=":1368951197_10_0" index="0" length="2.41" shape="755.50,427.75 756.19,427.14 757.64,426.84" speed="8.33"/>
   </edge>
   <edge function="internal" id=":1368951197_3">
      <lane disallow="tram rail_urban rail rail_electric ship" id=":1368951197_3_0" index="0" length="5.02" shape="755.95,422.79 755.61,424.13 755.77,425.24 756.45,426.15 757.64,426.84" speed="6.95"/>
   </edge>
   <edge function="internal" id=":1368951197_4">
      <lane disallow="tram rail_urban rail rail_electric ship" id=":1368951197_4_0" index="0" length="7.54" shape="755.95,422.79 754.72,425.32 753.50,426.99 752.29,427.81 751.09,427.76" speed="6.95"/>
   </edge>
   <edge function="internal" id=":1368951197_5">
      <lane allow="delivery bicycle pedestrian" id=":1368951197_5_0" index="0" length="4.82" shape="755.95,422.79 754.71,423.62 753.79,423.68 753.19,422.98 752.91,421.52" speed="5.56"/>
   </edge>
   <edge function="internal" id=":1368951197_6">
      <lane allow="delivery bicycle pedestrian" id=":1368951197_6_0" index="0" length="3.23" shape="752.30,424.69 752.91,421.52" speed="6.95"/>
   </edge>
   <edge function="internal" id=":1368951197_7">
      <lane disallow="tram rail_urban rail rail_electric ship" id=":1368951197_7_0" index="0" length="5.76" shape="752.30,424.69 757.64,426.84" speed="8.33"/>
   </edge>
   <edge function="internal" id=":1368951197_8">
      <lane disallow="tram rail_urban rail rail_electric ship" id=":1368951197_8_0" index="0" length="2.41" shape="752.30,424.69 753.15,425.92 753.23,426.84" speed="8.33"/>
   </edge>
   <edge function="internal" id=":1368951197_11">
      <lane id=":1368951197_11_0" index="0" length="2.41" shape="753.23,426.84 752.54,427.45 751.09,427.76" speed="8.33"/>
   </edge>
   <edge function="internal" id=":1368999880_0">
      <lane allow="delivery bicycle pedestrian" id=":1368999880_0_0" index="0" length="7.62" shape="784.23,423.89 783.12,425.64 781.70,426.64 779.99,426.90 777.97,426.42" speed="5.56"/>
   </edge>
   <edge function="internal" id=":1368999880_1">
      <lane allow="delivery bicycle pedestrian" id=":1368999880_1_0" index="0" length="2.81" shape="784.23,423.89 782.97,424.67 782.05,424.71 781.80,424.40" speed="5.56"/>
   </edge>
   <edge function="internal" id=":1368999880_4">
      <lane id=":1368999880_4_0" index="0" length="2.01" shape="781.80,424.40 781.47,423.99 781.23,422.52" speed="5.56"/>
   </edge>
   <edge function="internal" id=":1368999880_2">
      <lane allow="delivery bicycle pedestrian" id=":1368999880_2_0" index="0" length="2.49" shape="779.18,423.35 779.84,423.51 780.40,423.42 780.86,423.09 781.23,422.52" speed="5.56"/>
   </edge>
   <edge function="internal" id=":1368999880_3">
      <lane allow="delivery bicycle pedestrian" id=":1368999880_3_0" index="0" length="2.19" shape="779.18,423.35 780.03,424.57 780.09,425.27" speed="5.56"/>
   </edge>
   <edge function="internal" id=":1368999880_5">
      <lane id=":1368999880_5_0" index="0" length="2.63" shape="780.09,425.27 780.11,425.49 779.42,426.11 777.97,426.42" speed="5.56"/>
   </edge>
   <edge function="internal" id=":1369008548_0">
      <lane allow="delivery bicycle pedestrian" id=":1369008548_0_0" index="0" length="5.09" shape="736.23,409.89 734.91,409.59 733.78,409.79 732.86,410.50 732.12,411.71" speed="5.56"/>
   </edge>
   <edge function="internal" id=":1369008548_1">
      <lane allow="delivery bicycle pedestrian" id=":1369008548_1_0" index="0" length="9.48" shape="736.23,409.89 727.44,406.35" speed="5.56"/>
   </edge>
   <edge function="internal" id=":1369008548_2">
      <lane allow="delivery bicycle pedestrian" id=":1369008548_2_0" index="0" length="4.82" shape="736.23,409.89 735.38,408.67 735.30,407.75 735.99,407.14 737.44,406.83" speed="5.56"/>
   </edge>
   <edge function="internal" id=":1369008548_3">
      <lane allow="delivery bicycle pedestrian" id=":1369008548_3_0" index="0" length="9.44" shape="728.69,403.29 737.44,406.83" speed="5.56"/>
   </edge>
   <edge function="internal" id=":1369008548_4">
      <lane allow="delivery bicycle pedestrian" id=":1369008548_4_0" index="0" length="10.41" shape="728.69,403.29 731.16,404.75 732.55,406.63 732.87,408.95 732.12,411.71" speed="5.56"/>
   </edge>
   <edge function="internal" id=":1369008548_5">
      <lane allow="delivery bicycle pedestrian" id=":1369008548_5_0" index="0" length="4.82" shape="728.69,403.29 729.52,404.53 729.59,405.45 728.90,406.05 727.44,406.35" speed="5.56"/>
   </edge>
   <edge function="internal" id=":1369008548_6">
      <lane allow="delivery bicycle pedestrian" id=":1369008548_6_0" index="0" length="5.02" shape="729.09,410.41 729.45,409.08 729.30,407.96 728.63,407.05 727.44,406.35" speed="5.56"/>
   </edge>
   <edge function="internal" id=":1369008548_7">
      <lane allow="delivery bicycle pedestrian" id=":1369008548_7_0" index="0" length="10.29" shape="729.09,410.41 730.57,407.98 732.45,406.57 734.74,406.19 737.44,406.83" speed="5.56"/>
   </edge>
   <edge function="internal" id=":1369008548_8">
      <lane allow="delivery bicycle pedestrian" id=":1369008548_8_0" index="0" length="4.82" shape="729.09,410.41 730.34,409.60 731.26,409.54 731.86,410.25 732.12,411.71" speed="5.56"/>
   </edge>
   <edge function="internal" id=":1369008559_0">
      <lane allow="delivery bicycle pedestrian" id=":1369008559_0_0" index="0" length="5.08" shape="760.63,419.55 759.31,419.24 758.18,419.44 757.26,420.15 756.55,421.37" speed="5.56"/>
   </edge>
   <edge function="internal" id=":1369008559_1">
      <lane allow="delivery bicycle pedestrian" id=":1369008559_1_0" index="0" length="9.50" shape="760.63,419.55 751.80,416.06" speed="5.56"/>
   </edge>
   <edge function="internal" id=":1369008559_2">
      <lane allow="delivery bicycle pedestrian" id=":1369008559_2_0" index="0" length="4.82" shape="760.63,419.55 759.78,418.33 759.70,417.41 760.39,416.80 761.85,416.48" speed="5.56"/>
   </edge>
   <edge function="internal" id=":1369008559_3">
      <lane allow="delivery bicycle pedestrian" id=":1369008559_3_0" index="0" length="9.50" shape="753.01,412.99 761.85,416.48" speed="5.56"/>
   </edge>
   <edge function="internal" id=":1369008559_4">
      <lane allow="delivery bicycle pedestrian" id=":1369008559_4_0" index="0" length="10.42" shape="753.01,412.99 755.50,414.41 756.91,416.28 757.26,418.60 756.55,421.37" speed="5.56"/>
   </edge>
   <edge function="internal" id=":1369008559_5">
      <lane allow="delivery bicycle pedestrian" id=":1369008559_5_0" index="0" length="4.82" shape="753.01,412.99 753.86,414.21 753.94,415.13 753.25,415.74 751.80,416.06" speed="5.56"/>
   </edge>
   <edge function="internal" id=":1369008559_6">
      <lane allow="delivery bicycle pedestrian" id=":1369008559_6_0" index="0" length="5.02" shape="753.50,420.10 753.85,418.76 753.68,417.64 752.99,416.74 751.80,416.06" speed="5.56"/>
   </edge>
   <edge function="internal" id=":1369008559_7">
      <lane allow="delivery bicycle pedestrian" id=":1369008559_7_0" index="0" length="10.33" shape="753.50,420.10 754.95,417.65 756.83,416.23 759.12,415.84 761.85,416.48" speed="5.56"/>
   </edge>
   <edge function="internal" id=":1369008559_8">
      <lane allow="delivery bicycle pedestrian" id=":1369008559_8_0" index="0" length="4.82" shape="753.50,420.10 754.74,419.27 755.66,419.21 756.26,419.91 756.55,421.37" speed="5.56"/>
   </edge>
   <edge function="internal" id=":1369010003_0">
      <lane allow="delivery bicycle pedestrian" id=":1369010003_0_0" index="0" length="4.82" shape="726.98,439.05 725.76,439.91 724.84,440.00 724.22,439.32 723.89,437.87" speed="5.56"/>
   </edge>
   <edge function="internal" id=":1369010004_0">
      <lane allow="delivery bicycle pedestrian" id=":1369010004_0_0" index="0" length="5.02" shape="736.83,422.02 735.49,421.70 734.37,421.88 733.48,422.57 732.81,423.78" speed="6.95"/>
   </edge>
   <edge function="internal" id=":1369010004_1">
      <lane disallow="tram rail_urban rail rail_electric ship" id=":1369010004_1_0" index="0" length="8.37" shape="736.83,422.02 729.06,418.90" speed="8.33"/>
   </edge>
   <edge function="internal" id=":1369010004_2">
      <lane disallow="tram rail_urban rail rail_electric ship" id=":1369010004_2_0" index="0" length="2.41" shape="736.83,422.02 735.99,420.80 735.92,419.88" speed="8.33"/>
   </edge>
   <edge function="internal" id=":1369010004_9">
      <lane id=":1369010004_9_0" index="0" length="2.41" shape="735.92,419.88 736.61,419.27 738.06,418.96" speed="8.33"/>
   </edge>
   <edge function="internal" id=":1369010004_3">
      <lane disallow="tram rail_urban rail rail_electric ship" id=":1369010004_3_0" index="0" length="8.38" shape="730.29,415.84 738.06,418.96" speed="8.33"/>
   </edge>
   <edge function="internal" id=":1369010004_4">
      <lane allow="delivery bicycle pedestrian" id=":1369010004_4_0" index="0" length="4.46" shape="730.29,415.84 732.25,417.06 733.33,418.79 733.34,418.90" speed="6.95"/>
   </edge>
   <edge function="internal" id=":1369010004_5">
      <lane disallow="tram rail_urban rail rail_electric ship" id=":1369010004_5_0" index="0" length="2.41" shape="730.29,415.84 731.13,417.07 731.21,417.99" speed="8.33"/>
   </edge>
   <edge function="internal" id=":1369010004_10">
      <lane id=":1369010004_10_0" index="0" length="4.98" shape="733.34,418.90 733.51,421.03 732.81,423.78" speed="6.95"/>
   </edge>
   <edge function="internal" id=":1369010004_11">
      <lane id=":1369010004_11_0" index="0" length="2.41" shape="731.21,417.99 730.52,418.60 729.06,418.90" speed="8.33"/>
   </edge>
   <edge function="internal" id=":1369010004_6">
      <lane disallow="tram rail_urban rail rail_electric ship" id=":1369010004_6_0" index="0" length="4.20" shape="729.73,422.60 730.11,421.25 730.13,420.19 729.78,419.41 729.06,418.90" speed="6.95"/>
   </edge>
   <edge function="internal" id=":1369010004_7">
      <lane disallow="tram rail_urban rail rail_electric ship" id=":1369010004_7_0" index="0" length="10.41" shape="729.73,422.60 731.12,420.10 732.97,418.66 735.28,418.28 738.06,418.96" speed="6.95"/>
   </edge>
   <edge function="internal" id=":1369010004_8">
      <lane allow="delivery bicycle pedestrian" id=":1369010004_8_0" index="0" length="4.82" shape="729.73,422.60 730.94,421.74 731.86,421.65 732.48,422.33 732.81,423.78" speed="5.56"/>
   </edge>
   <edge function="internal" id=":1370147643_0">
      <lane allow="delivery bicycle pedestrian" id=":1370147643_0_0" index="0" length="4.82" shape="763.73,4.05 765.00,4.84 765.44,5.65 765.06,6.49 763.85,7.35" speed="5.56"/>
   </edge>
   <edge function="internal" id=":1370147644_0">
      <lane allow="delivery bicycle pedestrian" id=":1370147644_0_0" index="0" length="4.82" shape="654.82,11.11 653.56,10.33 653.12,9.52 653.50,8.68 654.71,7.81" speed="5.56"/>
   </edge>
   <edge function="internal" id=":1379155296_0">
      <lane disallow="tram rail_urban rail rail_electric ship" id=":1379155296_0_0" index="0" length="0.10" shape="238.68,221.66 238.68,221.66" speed="8.33"/>
   </edge>
   <edge function="internal" id=":1379155296_1">
      <lane disallow="tram rail_urban rail rail_electric ship" id=":1379155296_1_0" index="0" length="2.41" shape="238.68,221.66 237.83,220.44 237.74,219.52" speed="8.33"/>
   </edge>
   <edge function="internal" id=":1379155296_4">
      <lane id=":1379155296_4_0" index="0" length="2.41" shape="237.74,219.52 238.43,218.91 239.88,218.59" speed="8.33"/>
   </edge>
   <edge function="internal" id=":1379155296_2">
      <lane disallow="tram rail_urban rail rail_electric ship" id=":1379155296_2_0" index="0" length="0.10" shape="239.88,218.59 239.88,218.59" speed="8.33"/>
   </edge>
   <edge function="internal" id=":1379155296_3">
      <lane disallow="tram rail_urban rail rail_electric ship" id=":1379155296_3_0" index="0" length="2.41" shape="239.88,218.59 240.73,219.81 240.82,220.73" speed="8.33"/>
   </edge>
   <edge function="internal" id=":1379155296_5">
      <lane id=":1379155296_5_0" index="0" length="2.41" shape="240.82,220.73 240.13,221.35 238.68,221.66" speed="8.33"/>
   </edge>
   <edge function="internal" id=":1379251649_0">
      <lane disallow="tram rail_urban rail rail_electric ship" id=":1379251649_0_0" index="0" length="0.10" shape="189.95,447.03 189.95,447.03" speed="8.33"/>
   </edge>
   <edge function="internal" id=":1379251649_1">
      <lane disallow="tram rail_urban rail rail_electric ship" id=":1379251649_1_0" index="0" length="2.41" shape="189.95,447.03 189.11,445.80 189.03,444.89" speed="8.33"/>
   </edge>
   <edge function="internal" id=":1379251649_4">
      <lane id=":1379251649_4_0" index="0" length="2.41" shape="189.03,444.89 189.71,444.27 191.17,443.96" speed="8.33"/>
   </edge>
   <edge function="internal" id=":1379251649_2">
      <lane disallow="tram rail_urban rail rail_electric ship" id=":1379251649_2_0" index="0" length="0.10" shape="191.17,443.96 191.17,443.96" speed="8.33"/>
   </edge>
   <edge function="internal" id=":1379251649_3">
      <lane disallow="tram rail_urban rail rail_electric ship" id=":1379251649_3_0" index="0" length="2.41" shape="191.17,443.96 192.01,445.18 192.09,446.10" speed="8.33"/>
   </edge>