<?xml version="1.0" encoding="utf-8"?><!-- generated on 10/11/17 17:50:18 by SUMO polyconvert Version 0.25.0
<?xml version="1.0" encoding="UTF-8"?>

<configuration xmlns:xsi="http://www.w3.org/2001/XMLSchema-instance" xsi:noNamespaceSchemaLocation="http://sumo.dlr.de/xsd/polyconvertConfiguration.xsd">

    <input>
        <net-file value="B_Haselhorst_urban_800.net.xml"/>
        <osm-files value="B_Haselhorst_urban_800.osm"/>
        <type-file value="osmPolyconvert.typ.xml"/>
    </input>

    <output>
        <output-file value="B_Haselhorst_urban_800.poly.xml"/>
    </output>

    <projection>
        <proj.utm value="true"/>
    </projection>

    <processing>
        <poi-layer-offset value="5"/>
    </processing>

</configuration>
-->
<additional>
   <location convBoundary="0.00,-0.00,819.66,760.30" netOffset="-380122.93,-5822550.66" origBoundary="13.232302,52.540000,13.244296,52.546698" projParameter="+proj=utm +zone=33 +ellps=WGS84 +datum=WGS84 +units=m +no_defs"/>
   <poly color="red" fill="1" id="111239365" layer="-1.00" shape="347.81,494.50 357.74,498.61 374.01,458.27 366.81,455.42 364.21,454.35 347.81,494.50" type="building"/>
   <poly color="red" fill="1" id="111239367" layer="-1.00" shape="330.34,465.56 326.00,476.40 324.00,481.39 333.47,485.17 339.81,469.33 330.34,465.56" type="building"/>
   <poly color="red" fill="1" id="117693390" layer="-1.00" shape="767.91,390.47 773.19,392.41 774.23,389.60 768.95,387.64 767.91,390.47" type="building"/>
   <poly color="red" fill="0" id="117693396" layer="-1.00" shape="753.83,578.02 742.69,576.89" type="building"/>
   <poly color="red" fill="1" id="117693417" layer="-1.00" shape="651.62,582.10 718.79,588.73 720.08,575.84 652.90,569.20 651.62,582.10" type="building"/>
   <poly color="red" fill="1" id="117693435" layer="-1.00" shape="633.05,551.26 634.48,537.79 626.74,536.98 625.58,548.09 625.33,550.45 633.05,551.26" type="building"/>
   <poly color="red" fill="1" id="117693461" layer="-1.00" shape="607.20,574.53 608.61,563.01 601.20,562.11 599.79,573.63 601.53,573.84 607.20,574.53" type="building"/>
   <poly color="red" fill="0" id="117693480" layer="-1.00" shape="633.44,567.88 624.06,567.03" type="building"/>
   <poly color="red" fill="1" id="117693507" layer="-1.00" shape="618.17,407.17 615.80,403.29 614.59,404.02 612.29,400.24 613.49,399.51 611.13,395.63 619.78,390.39 626.83,401.92 618.17,407.17" type="building"/>
   <poly color="red" fill="1" id="117693515" layer="-1.00" shape="716.57,636.02 717.43,626.37 649.39,620.33 648.53,629.97 716.57,636.02" type="building"/>
   <poly color="red" fill="0" id="117693520" layer="-1.00" shape="811.32,291.89 802.82,298.05 807.77,304.84 811.89,310.49 815.23,315.07" type="building"/>
   <poly color="red" fill="1" id="117693529" layer="-1.00" shape="606.78,393.21 610.21,384.12 597.00,379.16 593.56,388.23 606.78,393.21" type="building"/>
   <poly color="red" fill="1" id="117693533" layer="-1.00" shape="791.82,582.35 803.94,583.77 804.35,580.27 812.67,581.25 814.66,564.29 805.96,563.27 812.53,507.45 814.28,507.66 814.40,506.67 816.49,506.92 816.39,507.78 808.55,492.73 806.91,506.55 810.74,506.99 810.37,510.13 797.87,508.66 797.05,515.64 798.77,515.84 798.44,518.61 796.69,518.41 795.07,532.12 796.81,532.33 796.49,535.05 794.90,534.86 793.26,548.82 795.05,549.02 794.74,551.70 792.94,551.49 792.12,558.47 797.87,559.14 797.40,563.07 798.91,563.25 798.04,570.61 796.58,570.45 796.24,573.37 792.93,572.98 791.82,582.35" type="building"/>
   <poly color="red" fill="1" id="117693547" layer="-1.00" shape="665.20,726.11 672.90,644.11 662.81,643.18 655.11,725.16 665.20,726.11" type="building"/>
   <poly color="red" fill="1" id="117693553" layer="-1.00" shape="728.55,297.38 735.82,292.22 727.52,280.60 726.05,281.65 720.25,285.77 728.55,297.38" type="building"/>
   <poly color="red" fill="1" id="117693560" layer="-1.00" shape="556.02,362.02 543.62,357.19 540.61,364.88 553.01,369.71 556.02,362.02" type="building"/>
   <poly color="red" fill="1" id="117693565" layer="-1.00" shape="682.21,727.67 692.99,728.57 699.83,647.04 689.04,646.15 682.21,727.67" type="building"/>
   <poly color="red" fill="1" id="117693570" layer="-1.00" shape="734.57,301.67 736.01,303.70 742.52,312.85 750.16,307.44 742.22,296.26 734.57,301.67" type="building"/>
   <poly color="red" fill="0" id="117693580" layer="-1.00" shape="706.18,743.01 678.36,741.28" type="building"/>
   <poly color="red" fill="1" id="117693584" layer="-1.00" shape="551.99,398.28 574.89,407.19 587.51,374.94 564.61,366.02 551.99,398.28" type="building"/>
   <poly color="red" fill="0" id="117693591" layer="-1.00" shape="666.00,741.01 636.87,739.74" type="building"/>
   <poly color="red" fill="1" id="117693592" layer="-1.00" shape="665.08,258.20 677.89,252.92 672.58,240.09 659.76,245.36 663.10,253.43 665.08,258.20" type="building"/>
   <poly color="red" fill="1" id="117693605" layer="-1.00" shape="632.78,149.47 641.53,152.72 642.44,153.05 645.32,145.31 652.35,126.45 656.54,115.20 646.88,111.63 632.78,149.47" type="building"/>
   <poly color="red" fill="1" id="117693644" layer="-1.00" shape="665.16,282.69 659.97,269.57 649.28,273.80 653.62,284.75 654.47,286.90 665.16,282.69" type="building"/>
   <poly color="red" fill="1" id="117693663" layer="-1.00" shape="678.65,287.77 683.13,298.24 696.18,292.71 694.80,289.48 691.70,282.22 678.65,287.77" type="building"/>
   <poly color="red" fill="1" id="117693684" layer="-1.00" shape="697.29,267.84 707.99,263.07 705.09,256.59 703.77,257.18 702.53,257.72 700.88,254.02 692.73,257.66 697.29,267.84" type="building"/>
   <poly color="red" fill="1" id="117693711" layer="-1.00" shape="590.45,343.14 599.59,346.64 617.47,353.48 627.25,357.22 631.59,345.93 594.79,331.85 590.45,343.14" type="building"/>
   <poly color="red" fill="1" id="117693720" layer="-1.00" shape="756.99,361.93 755.67,360.03 749.74,351.52 741.26,357.40 748.51,367.81 756.99,361.93" type="building"/>
   <poly color="red" fill="1" id="122252232" layer="-1.00" shape="536.38,327.54 559.44,270.73 544.07,264.52 521.01,321.33 528.40,324.31 536.38,327.54" type="building"/>
   <poly color="red" fill="1" id="122252235" layer="-1.00" shape="578.88,345.03 564.49,339.34 572.48,319.26 583.68,323.69 580.48,331.74 578.78,331.07 577.50,334.30 582.38,336.23 578.88,345.03" type="building"/>
   <poly color="red" fill="1" id="122252236" layer="-1.00" shape="437.59,285.05 420.41,278.01 425.23,266.30 442.41,273.32 437.59,285.05" type="building"/>
   <poly color="red" fill="1" id="122252237" layer="-1.00" shape="508.77,316.90 511.98,308.72 508.62,307.41 505.46,315.63 508.77,316.90" type="building"/>
   <poly color="red" fill="1" id="122252238" layer="-1.00" shape="237.44,203.48 240.35,194.24 251.02,197.60 257.30,200.40 254.50,208.86 237.44,203.48" type="building"/>
   <poly color="red" fill="1" id="122252240" layer="-1.00" shape="556.22,336.39 542.82,330.78 548.68,316.85 554.18,319.15 556.72,313.10 564.63,316.41 556.22,336.39" type="building"/>
   <poly color="red" fill="1" id="122252242" layer="-1.00" shape="487.82,308.89 492.13,298.02 509.65,304.71 508.62,307.41 505.46,315.63 487.82,308.89" type="building"/>
   <poly color="red" fill="1" id="122252244" layer="-1.00" shape="558.95,337.52 561.77,330.79 559.05,329.66 556.23,336.38 558.95,337.52" type="building"/>
   <poly color="red" fill="1" id="122252246" layer="-1.00" shape="555.67,374.22 547.70,394.37 540.27,391.45 548.25,371.30 555.67,374.22" type="building"/>
   <poly color="red" fill="1" id="122252247" layer="-1.00" shape="389.33,260.96 357.78,247.89 361.48,239.02 384.26,248.46 393.02,252.09 389.33,260.96" type="building"/>
   <poly color="red" fill="1" id="122252248" layer="-1.00" shape="488.96,305.76 486.86,304.90 481.59,302.76 458.26,293.28 462.17,284.03 487.20,294.20 492.76,296.46 492.13,298.02 488.96,305.76" type="building"/>
   <poly color="red" fill="1" id="122252249" layer="-1.00" shape="458.26,293.28 437.59,285.05 442.41,273.32 463.05,281.95 462.17,284.03 458.26,293.28" type="building"/>
   <poly color="red" fill="1" id="122252250" layer="-1.00" shape="425.24,237.26 435.56,241.54 425.23,266.30 414.91,262.03 425.24,237.26" type="building"/>
   <poly color="red" fill="1" id="122252253" layer="-1.00" shape="489.42,280.41 474.39,274.15 469.12,286.76 487.20,294.20 488.08,292.08 485.06,290.83 489.42,280.41" type="building"/>
   <poly color="red" fill="1" id="122252254" layer="-1.00" shape="249.53,236.08 247.52,240.65 242.08,238.26 244.09,233.70 249.53,236.08" type="building"/>
   <poly color="237,199,255" fill="1" id="122252254#1" layer="-1.00" shape="249.53,236.08 247.52,240.65 242.08,238.26 244.09,233.70 249.53,236.08" type="shop"/>
   <poly color="red" fill="1" id="122252255" layer="-1.00" shape="420.41,278.01 425.23,266.30 414.91,262.03 410.55,272.85 411.42,274.83 420.41,278.01" type="building"/>
   <poly color="red" fill="1" id="122252256" layer="-1.00" shape="274.65,215.71 277.83,206.82 301.29,215.25 300.78,216.56 308.85,219.50 306.11,227.27 274.65,215.71" type="building"/>
   <poly color="red" fill="1" id="122252257" layer="-1.00" shape="347.23,245.26 315.21,232.86 319.16,222.71 342.85,231.91 351.18,235.13 347.23,245.26" type="building"/>
   <poly color="red" fill="1" id="122253987" layer="-1.00" shape="23.76,541.45 25.17,537.92 32.68,519.12 40.19,500.35 42.12,495.52 49.29,498.36 58.15,501.89 39.79,547.83 31.00,544.34 23.76,541.45" type="building"/>
   <poly color="red" fill="1" id="122292102" layer="-1.00" shape="741.65,432.44 765.72,441.75 769.22,447.21 766.91,465.17 766.03,473.76 760.50,473.20 755.41,472.68 756.33,463.87 754.97,463.70 755.37,461.42 756.38,461.50 757.37,453.75 756.80,452.50 755.62,453.07 754.48,450.92 755.20,450.45 754.62,449.29 747.18,446.20 746.84,447.30 744.27,446.27 744.70,445.17 739.67,443.07 737.66,442.29 739.88,436.61 741.65,432.44" type="building"/>
   <poly color="red" fill="1" id="122292103" layer="-1.00" shape="701.43,419.51 681.74,411.83 683.53,407.27 676.15,404.40 675.51,406.03 671.69,404.55 670.03,408.77 659.80,404.78 651.18,426.78 661.35,430.75 668.21,413.23 676.56,416.49 675.34,419.60 678.19,420.71 677.16,423.35 682.64,425.49 683.20,424.05 690.54,426.91 689.84,428.70 691.08,429.18 692.31,429.66 692.97,428.00 694.48,428.60 697.38,429.73 702.21,431.60 701.61,433.12 702.76,433.57 703.91,434.01 704.47,432.58 711.79,435.43 711.15,437.07 717.16,439.41 718.37,436.30 719.28,436.66 720.22,437.03 721.30,434.26 730.01,437.66 723.10,455.30 733.32,459.28 739.67,443.07 737.66,442.29 739.88,436.61 735.17,434.78 736.60,431.13 733.03,429.74 729.00,428.17 729.64,426.53 723.24,424.03 721.89,427.49 701.43,419.51" type="building"/>
   <poly color="red" fill="1" id="122319787" layer="-1.00" shape="732.06,550.73 742.37,551.78 742.79,547.70 740.04,547.42 744.35,505.21 746.36,505.41 749.76,472.12 755.41,472.68 760.50,473.20 757.11,506.51 755.42,506.34 751.11,548.54 754.09,548.85 753.00,559.58 743.87,558.65 743.64,560.91 741.21,560.65 741.10,561.81 731.04,560.79 731.43,556.92 724.63,556.23 724.47,557.78 719.52,557.29 719.67,555.85 703.76,554.23 703.59,555.93 698.86,555.45 699.02,553.87 691.21,553.08 690.95,555.58 686.47,555.12 686.34,556.42 676.80,555.45 676.89,554.52 673.04,554.14 672.95,555.08 669.81,554.76 669.89,554.02 663.62,553.39 663.52,554.41 656.62,553.71 656.72,552.66 652.09,552.19 653.04,542.94 655.34,543.17 655.56,540.93 666.36,542.02 666.26,543.05 669.02,543.33 669.18,541.68 675.48,542.31 675.33,543.76 678.16,544.05 678.32,542.47 689.21,543.57 689.10,544.64 692.04,544.94 692.33,542.08 732.53,546.15 732.06,550.73" type="building"/>
   <poly color="red" fill="1" id="122319803" layer="-1.00" shape="653.71,431.66 643.19,430.56 641.28,448.73 637.93,480.55 635.97,480.34 631.50,522.74 642.53,523.89 646.99,481.49 648.45,481.64 651.80,449.82 653.71,431.66" type="building"/>
   <poly color="red" fill="1" id="122319812" layer="-1.00" shape="676.02,477.78 674.73,477.64 670.14,519.66 680.79,520.83 685.38,478.80 687.11,478.99 690.81,445.15 686.81,444.73 686.72,445.57 679.63,444.79 676.02,477.78" type="building"/>
   <poly color="red" fill="1" id="122404217" layer="-1.00" shape="87.76,489.14 86.00,493.52 64.74,485.01 69.02,474.38 60.35,470.91 61.98,466.86 71.03,470.47 71.69,468.82 79.11,471.79 74.29,483.75 87.76,489.14" type="building"/>
   <poly color="red" fill="1" id="122404218" layer="-1.00" shape="71.50,597.95 63.72,608.60 52.60,600.53 49.10,605.32 39.14,598.09 42.57,593.39 27.04,582.11 27.72,581.17 29.86,578.24 34.88,571.36 71.50,597.95" type="building"/>
   <poly color="red" fill="1" id="122404219" layer="-1.00" shape="77.98,591.15 96.00,605.04 100.99,598.60 96.00,594.75 102.77,586.00 107.75,589.84 112.60,583.58 94.27,569.44 89.54,575.53 96.58,580.96 89.72,589.83 83.01,584.65 77.98,591.15" type="building"/>
   <poly color="207,245,201" fill="1" id="122404220" layer="-2.00" shape="67.98,525.48 76.04,505.07 118.08,521.58 110.02,542.00 67.98,525.48" type="leisure"/>
   <poly color="red" fill="1" id="122404221" layer="-1.00" shape="27.72,581.17 18.89,574.63 20.17,571.43 29.86,578.24 27.72,581.17" type="building"/>
   <poly color="red" fill="1" id="122404223" layer="-1.00" shape="102.18,494.93 98.53,493.47 103.73,480.58 107.38,482.04 102.18,494.93" type="building"/>
   <poly color="237,199,199" fill="1" id="122404224" layer="-1.00" shape="21.13,446.42 167.35,503.04 153.95,536.18 83.41,628.59 21.13,446.42" type="amenity"/>
   <poly color="red" fill="1" id="122404225" layer="-1.00" shape="74.29,483.75 79.11,471.79 79.49,470.86 103.73,480.58 98.53,493.47 87.76,489.14 74.29,483.75" type="building"/>
   <poly color="207,245,201" fill="1" id="122404225#1" layer="-2.00" shape="74.29,483.75 79.11,471.79 79.49,470.86 103.73,480.58 98.53,493.47 87.76,489.14 74.29,483.75" type="leisure"/>
   <poly color="red" fill="1" id="122404226" layer="-1.00" shape="40.19,500.35 30.76,496.57 45.41,460.23 61.98,466.86 60.35,470.91 49.29,498.36 42.12,495.52 40.19,500.35" type="building"/>
   <poly color="red" fill="1" id="122404227" layer="-1.00" shape="17.49,578.14 18.89,574.63 20.17,571.43 31.00,544.34 23.76,541.45 25.17,537.92 15.89,534.23 17.49,578.14" type="building"/>
   <poly color="red" fill="1" id="122404228" layer="-1.00" shape="108.29,499.74 114.26,484.65 133.23,492.12 127.24,507.26 115.29,502.55 114.38,504.87 109.32,502.88 110.25,500.52 108.29,499.74" type="building"/>
   <poly color="237,199,199" fill="1" id="122528724" layer="-1.00" shape="780.70,420.04 760.06,411.84 762.77,405.06 765.69,397.75 786.32,405.95 780.70,420.04" type="amenity"/>
   <poly color="red" fill="1" id="122528724#1" layer="-1.00" shape="780.70,420.04 760.06,411.84 762.77,405.06 765.69,397.75 786.32,405.95 780.70,420.04" type="building"/>
   <poly color="237,199,255" fill="1" id="122528724#2" layer="-1.00" shape="780.70,420.04 760.06,411.84 762.77,405.06 765.69,397.75 786.32,405.95 780.70,420.04" type="shop"/>
   <poly color="red" fill="1" id="122528725" layer="-1.00" shape="753.72,412.36 744.36,408.64 752.06,389.40 761.32,393.09 760.25,395.77 765.69,397.75 762.77,405.06 760.06,411.84 754.84,409.58 753.72,412.36" type="building"/>
   <poly color="red" fill="1" id="122528728" layer="-1.00" shape="744.93,388.51 759.21,378.73 754.43,371.78 740.15,381.56 742.35,384.75 744.93,388.51" type="building"/>
   <poly color="237,199,199" fill="1" id="122544273" layer="-1.00" shape="402.18,534.18 368.84,520.95 282.71,486.75 286.94,476.15 406.41,523.57 402.18,534.18" type="amenity"/>
   <poly color="red" fill="1" id="122548638" layer="-1.00" shape="401.06,538.41 395.11,553.18 385.93,549.51 365.05,541.15 371.00,526.37 401.06,538.41" type="building"/>
   <poly color="237,199,255" fill="1" id="122548638#1" layer="-1.00" shape="401.06,538.41 395.11,553.18 385.93,549.51 365.05,541.15 371.00,526.37 401.06,538.41" type="shop"/>
   <poly color="184,184,179" fill="1" id="122678799" layer="-1.00" shape="682.07,25.12 682.27,9.94 657.43,10.74 657.87,24.95 682.07,25.12" type="parking"/>
   <poly color="red" fill="1" id="122700497" layer="-1.00" shape="450.85,323.22 470.05,330.56 473.14,337.93 471.97,341.23 462.30,337.40 461.27,339.94 446.22,334.50 450.85,323.22" type="building"/>
   <poly color="237,199,199" fill="1" id="123769118" layer="-1.00" shape="704.43,394.87 648.14,373.11 645.62,366.48 662.81,327.18 704.00,322.00 720.59,308.51 745.37,340.53 719.71,359.99 704.43,394.87" type="amenity"/>
   <poly color="red" fill="1" id="123769119" layer="-1.00" shape="663.67,373.00 663.38,371.76 660.48,359.56 657.53,360.25 655.70,352.57 668.16,349.62 669.93,357.05 672.79,356.37 675.55,355.72 677.37,363.35 674.60,364.01 670.23,365.04 671.67,371.10 663.67,373.00" type="building"/>
   <poly color="red" fill="1" id="123769120" layer="-1.00" shape="604.51,525.04 604.36,526.52 613.57,527.43 613.02,532.92 611.46,532.77 610.97,537.65 605.52,537.12 605.43,537.99 605.34,538.86 607.89,539.11 607.61,541.93 609.27,542.09 608.72,547.59 592.65,546.01 594.83,524.08 604.51,525.04" type="building"/>
   <poly color="red" fill="1" id="123769121" layer="-1.00" shape="697.71,366.66 714.04,362.81 709.84,345.12 713.24,344.33 712.37,340.69 706.94,341.98 704.56,331.97 686.25,336.30 688.67,346.45 689.69,346.20 690.85,351.05 692.79,350.59 694.45,357.60 685.31,359.77 686.23,363.64 691.31,362.44 696.42,361.23 697.71,366.66" type="building"/>
   <poly color="red" fill="1" id="123769122" layer="-1.00" shape="637.55,551.87 648.20,552.30 648.44,546.28 637.79,545.86 637.55,551.87" type="building"/>
   <poly color="red" fill="1" id="123769123" layer="-1.00" shape="583.20,428.81 582.41,438.32 580.06,466.52 589.02,467.27 585.51,509.45 597.70,510.46 598.71,498.35 600.39,478.17 601.21,468.27 592.70,467.57 593.63,456.03 594.79,441.70 595.74,429.84 583.20,428.81" type="building"/>
   <poly color="red" fill="1" id="123769124" layer="-1.00" shape="631.50,522.74 631.17,525.94 630.89,528.58 636.29,529.15 641.91,529.73 642.53,523.89 631.50,522.74" type="building"/>
   <poly color="red" fill="1" id="123769126" layer="-1.00" shape="653.57,530.95 654.19,525.10 642.53,523.89 641.91,529.73 653.57,530.95" type="building"/>
   <poly color="red" fill="1" id="123769128" layer="-1.00" shape="654.95,373.76 652.05,361.54 657.53,360.25 660.48,359.56 663.38,371.76 654.95,373.76" type="building"/>
   <poly color="red" fill="1" id="123769129" layer="-1.00" shape="677.74,381.40 690.90,378.28 688.96,370.09 687.82,370.35 676.73,372.98 675.80,373.21 677.74,381.40" type="building"/>
   <poly color="red" fill="1" id="123769130" layer="-1.00" shape="635.37,537.88 636.29,529.15 630.89,528.58 627.66,528.24 627.08,533.72 626.74,536.98 634.48,537.79 635.37,537.88" type="building"/>
   <poly color="237,199,255" fill="1" id="123769130#1" layer="-1.00" shape="635.37,537.88 636.29,529.15 630.89,528.58 627.66,528.24 627.08,533.72 626.74,536.98 634.48,537.79 635.37,537.88" type="shop"/>
   <poly color="red" fill="1" id="123769131" layer="-1.00" shape="686.10,345.38 668.16,349.62 669.93,357.05 672.79,356.37 675.55,355.72 683.88,353.75 687.86,352.80 686.48,346.96 686.10,345.38" type="building"/>
   <poly color="red" fill="1" id="123769132" layer="-1.00" shape="694.45,357.60 685.31,359.77 683.88,353.75 687.86,352.80 686.48,346.96 688.67,346.45 689.69,346.20 690.85,351.05 692.79,350.59 694.45,357.60" type="building"/>
   <poly color="red" fill="1" id="123769135" layer="-1.00" shape="673.18,358.05 674.60,364.01 676.73,372.98 687.82,370.35 686.23,363.64 685.31,359.77 683.88,353.75 675.55,355.72 672.79,356.37 673.18,358.05" type="building"/>
   <poly color="red" fill="1" id="123780031" layer="-1.00" shape="184.94,532.65 185.58,531.06 181.96,529.61 175.01,526.84 165.54,550.47 176.11,554.68 178.40,548.97 184.94,532.65" type="building"/>
   <poly color="red" fill="1" id="123780032" layer="-1.00" shape="436.79,727.18 446.27,703.74 414.95,691.15 405.47,714.59 436.79,727.18" type="building"/>
   <poly color="237,199,255" fill="1" id="123780032#1" layer="-1.00" shape="436.79,727.18 446.27,703.74 414.95,691.15 405.47,714.59 436.79,727.18" type="shop"/>
   <poly color="red" fill="1" id="123780034" layer="-1.00" shape="218.15,554.21 211.44,570.86 209.10,576.69 198.48,572.44 208.07,548.58 215.17,551.41 214.61,552.80 218.15,554.21" type="building"/>
   <poly color="237,199,199" fill="1" id="123800776" layer="-1.00" shape="774.08,210.82 774.74,208.94 775.55,209.20 777.32,204.88 776.00,204.42 777.37,201.10 778.65,201.65 783.11,190.79 781.92,190.05 782.72,188.10 780.29,187.12 781.09,185.50 777.14,183.90 776.35,185.52 770.69,183.25 770.46,183.93 766.50,182.33 766.75,181.65 758.27,178.23 757.99,178.87 754.20,177.34 754.47,176.70 746.13,173.34 745.84,173.95 744.88,173.56 747.74,166.42 746.96,166.21 748.57,162.46 749.25,162.65 751.11,158.01 743.25,154.86 742.92,155.38 741.68,154.85 742.71,152.23 742.32,151.18 737.60,149.34 736.57,152.18 734.37,151.30 732.71,155.30 733.28,155.61 731.62,159.78 730.96,159.49 727.65,167.43 728.39,167.85 727.58,169.90 732.55,172.16 732.02,173.68 730.88,173.40 729.24,177.49 729.91,177.70 729.03,179.92 728.23,181.95 727.51,181.83 724.18,190.14 724.91,190.32 723.39,194.15 722.69,193.89 719.39,202.13 720.09,202.50 718.52,206.45 717.77,206.18 716.03,210.53 722.23,213.14 721.85,213.97 720.00,213.07 719.19,213.35 718.64,213.98 718.66,214.93 718.81,215.99 720.03,216.91 723.03,218.34 725.76,219.34 726.57,218.89 727.04,217.49 731.18,219.27 731.98,217.24 732.71,217.55 736.15,209.08 735.39,208.66 736.85,204.98 737.70,205.27 741.18,196.70 740.27,196.35 741.68,192.80 742.61,193.19 744.35,188.88 743.43,188.41 745.38,183.47 755.45,187.78 754.61,189.99 759.33,191.08 760.08,190.86 760.56,189.96 765.30,191.99 764.25,194.23 763.18,193.86 762.32,195.97 761.81,195.65 758.43,203.83 759.01,204.02 758.13,206.14 765.25,208.69 766.11,206.24 767.57,206.92 767.00,208.14 774.08,210.82" type="amenity"/>
   <poly color="red" fill="1" id="123800776#1" layer="-1.00" shape="774.08,210.82 774.74,208.94 775.55,209.20 777.32,204.88 776.00,204.42 777.37,201.10 778.65,201.65 783.11,190.79 781.92,190.05 782.72,188.10 780.29,187.12 781.09,185.50 777.14,183.90 776.35,185.52 770.69,183.25 770.46,183.93 766.50,182.33 766.75,181.65 758.27,178.23 757.99,178.87 754.20,177.34 754.47,176.70 746.13,173.34 745.84,173.95 744.88,173.56 747.74,166.42 746.96,166.21 748.57,162.46 749.25,162.65 751.11,158.01 743.25,154.86 742.92,155.38 741.68,154.85 742.71,152.23 742.32,151.18 737.60,149.34 736.57,152.18 734.37,151.30 732.71,155.30 733.28,155.61 731.62,159.78 730.96,159.49 727.65,167.43 728.39,167.85 727.58,169.90 732.55,172.16 732.02,173.68 730.88,173.40 729.24,177.49 729.91,177.70 729.03,179.92 728.23,181.95 727.51,181.83 724.18,190.14 724.91,190.32 723.39,194.15 722.69,193.89 719.39,202.13 720.09,202.50 718.52,206.45 717.77,206.18 716.03,210.53 722.23,213.14 721.85,213.97 720.00,213.07 719.19,213.35 718.64,213.98 718.66,214.93 718.81,215.99 720.03,216.91 723.03,218.34 725.76,219.34 726.57,218.89 727.04,217.49 731.18,219.27 731.98,217.24 732.71,217.55 736.15,209.08 735.39,208.66 736.85,204.98 737.70,205.27 741.18,196.70 740.27,196.35 741.68,192.80 742.61,193.19 744.35,188.88 743.43,188.41 745.38,183.47 755.45,187.78 754.61,189.99 759.33,191.08 760.08,190.86 760.56,189.96 765.30,191.99 764.25,194.23 763.18,193.86 762.32,195.97 761.81,195.65 758.43,203.83 759.01,204.02 758.13,206.14 765.25,208.69 766.11,206.24 767.57,206.92 767.00,208.14 774.08,210.82" type="building"/>
   <poly color="red" fill="1" id="123800778" layer="-1.00" shape="542.56,227.01 539.21,235.27 540.96,235.97 539.53,239.51 537.85,238.84 531.01,255.70 532.64,256.35 531.26,259.76 529.60,259.09 526.23,267.39 525.25,266.99 516.11,263.31 514.71,262.74 531.08,222.37 542.56,227.01" type="building"/>
   <poly color="237,199,199" fill="1" id="123800780" layer="-1.00" shape="723.84,246.61 723.34,245.90 723.98,243.96 724.78,243.74 726.00,241.17 724.72,238.26 725.10,237.28 719.77,235.32 719.26,234.41 713.01,237.50 712.08,239.90 711.18,242.32 710.85,243.18 712.40,245.48 711.60,245.90 713.43,249.92 714.31,249.58 715.45,249.99 719.60,251.66 720.02,250.76 722.79,249.69 723.84,246.61" type="amenity"/>
   <poly color="red" fill="1" id="123800780#1" layer="-1.00" shape="723.84,246.61 723.34,245.90 723.98,243.96 724.78,243.74 726.00,241.17 724.72,238.26 725.10,237.28 719.77,235.32 719.26,234.41 713.01,237.50 712.08,239.90 711.18,242.32 710.85,243.18 712.40,245.48 711.60,245.90 713.43,249.92 714.31,249.58 715.45,249.99 719.60,251.66 720.02,250.76 722.79,249.69 723.84,246.61" type="building"/>
   <poly color="red" fill="1" id="123800781" layer="-1.00" shape="715.45,249.99 714.13,250.63 713.45,252.54 710.60,251.36 708.10,258.10 708.17,259.14 711.39,260.31 711.57,259.78 713.37,260.66 712.58,263.14 712.81,263.98 718.64,266.43 720.11,265.91 721.22,263.13 720.90,261.86 720.25,261.58 720.63,260.53 722.05,261.10 723.84,260.25 725.45,256.43 724.30,254.04 723.73,253.98 724.19,252.72 725.08,252.94 726.04,252.51 727.49,249.10 726.81,247.75 723.84,246.61 722.79,249.69 720.02,250.76 719.60,251.66 715.45,249.99" type="building"/>
   <poly color="red" fill="1" id="123800782" layer="-1.00" shape="704.63,296.06 698.48,305.25 695.84,300.52 694.56,299.99 693.08,300.27 692.73,302.32 696.10,307.82 691.96,309.73 691.15,308.72 690.40,313.22 688.90,316.40 687.28,317.77 685.22,317.12 683.92,318.96 682.53,320.25 682.49,321.43 674.56,322.72 674.21,321.15 670.60,321.80 669.49,318.44 669.22,316.72 670.85,312.68 676.27,312.07 678.86,311.69 682.19,309.10 683.94,306.69 684.50,303.85 684.36,301.42 683.13,298.24 696.18,292.71 694.80,289.48 696.58,288.71 697.90,291.27 700.09,290.59 704.63,296.06" type="building"/>
   <poly color="red" fill="1" id="123800783" layer="-1.00" shape="486.60,221.83 476.56,217.69 456.76,209.53 447.30,205.63 451.74,194.90 491.05,211.11 486.60,221.83" type="building"/>
   <poly color="red" fill="1" id="123800784" layer="-1.00" shape="58.41,730.24 42.53,755.25 52.32,760.30 55.95,754.37 63.54,742.53 67.65,736.13 58.41,730.24" type="building"/>
   <poly color="red" fill="1" id="123800785" layer="-1.00" shape="42.53,755.25 52.32,760.30 42.53,755.25" type="building"/>
   <poly color="red" fill="1" id="123800786" layer="-1.00" shape="64.14,684.99 54.06,697.55 45.99,691.10 56.07,678.54 64.14,684.99" type="building"/>
   <poly color="red" fill="1" id="123800787" layer="-1.00" shape="94.10,701.95 85.65,695.38 58.41,730.24 67.65,736.13 73.96,727.75 80.67,719.15 87.18,710.82 94.10,701.95" type="building"/>
   <poly color="red" fill="1" id="123800788" layer="-1.00" shape="511.37,301.23 525.25,266.99 516.11,263.31 502.23,297.54 511.37,301.23" type="building"/>
   <poly color="red" fill="1" id="123800789" layer="-1.00" shape="586.03,736.31 563.13,734.67 563.27,732.82 555.38,732.26 555.50,730.52 547.97,729.98 548.07,728.55 531.62,727.37 531.50,728.95 500.94,726.77 500.79,728.93 485.84,727.87 486.01,725.47 470.89,724.39 471.02,722.65 455.63,721.56 455.74,720.09 447.33,719.48 446.36,732.98 453.70,733.50 454.82,733.57 454.70,735.33 469.23,736.36 470.06,736.42 469.93,738.19 484.61,739.25 485.45,739.30 485.34,740.74 499.27,741.74 499.39,740.04 515.59,741.20 530.15,742.24 530.25,740.83 531.43,740.92 546.50,741.99 547.54,742.06 547.41,743.87 553.89,744.33 553.77,745.86 561.71,746.44 562.55,746.49 562.43,748.28 576.22,749.26 576.36,747.21 577.48,747.30 578.45,747.36 578.35,748.73 585.10,749.22 586.03,736.31" type="building"/>
   <poly color="red" fill="1" id="123800792" layer="-1.00" shape="438.05,227.93 447.30,205.63 451.74,194.90 453.55,190.52 444.85,186.94 435.93,208.46 429.35,224.34 438.05,227.93" type="building"/>
   <poly color="237,199,199" fill="1" id="123800793" layer="-1.00" shape="633.53,325.58 634.34,323.54 635.40,321.41 638.08,322.13 639.83,313.25 628.44,310.58 621.38,307.62 616.51,317.65 633.53,325.58" type="amenity"/>
   <poly color="red" fill="1" id="123800793#1" layer="-1.00" shape="633.53,325.58 634.34,323.54 635.40,321.41 638.08,322.13 639.83,313.25 628.44,310.58 621.38,307.62 616.51,317.65 633.53,325.58" type="building"/>
   <poly color="red" fill="1" id="123809347" layer="-1.00" shape="688.37,229.19 692.33,218.89 683.01,215.32 684.29,211.98 672.48,207.47 666.07,224.15 669.44,225.45 668.52,227.87 676.89,231.07 677.95,228.28 678.98,225.60 688.37,229.19" type="building"/>
   <poly color="red" fill="1" id="123809348" layer="-1.00" shape="465.83,170.67 469.30,162.37 470.29,162.78 470.97,161.16 471.64,159.54 470.64,159.12 475.66,147.10 476.37,147.40 477.04,145.81 477.75,144.11 476.83,143.74 479.72,136.81 468.49,132.14 454.39,165.92 465.83,170.67" type="building"/>
   <poly color="red" fill="1" id="123809349" layer="-1.00" shape="688.72,203.22 689.68,205.44 693.37,203.81 692.22,201.57 694.17,196.81 695.63,197.40 696.81,194.54 697.96,191.72 696.74,191.22 698.30,187.10 699.42,184.53 701.63,183.52 699.78,179.42 695.81,178.06 692.22,179.39 689.45,186.43 688.11,185.85 686.78,186.21 685.50,188.80 686.27,189.14 684.88,192.27 684.23,192.04 681.95,197.78 682.50,198.82 681.34,199.31 682.27,201.01 683.07,202.72 685.21,201.88 688.72,203.22" type="building"/>
   <poly color="red" fill="1" id="123809350" layer="-1.00" shape="594.76,188.40 591.25,196.87 592.20,197.25 591.49,198.97 590.71,200.84 589.77,200.45 586.71,207.82 585.13,207.16 584.54,208.59 583.81,210.35 582.91,209.97 579.54,218.10 568.30,213.44 581.07,182.74 594.76,188.40" type="building"/>
   <poly color="red" fill="1" id="123809355" layer="-1.00" shape="686.80,139.57 682.69,149.95 686.97,151.64 700.88,157.14 696.23,168.85 682.13,163.28 676.57,177.30 680.92,179.02 679.99,181.36 679.10,183.61 672.99,181.19 667.20,195.77 666.34,197.93 663.34,196.74 660.55,195.64 658.86,199.87 652.54,197.38 655.21,190.67 654.59,190.41 661.70,172.52 668.14,175.06 674.36,159.40 668.89,157.24 677.39,135.85 686.80,139.57" type="building"/>