<?xml version="1.0" encoding="utf-8"?><!-- generated on 10/11/17 17:50:25 by SUMO netconvert Version 0.25.0
<?xml version="1.0" encoding="UTF-8"?>

<configuration xmlns:xsi="http://www.w3.org/2001/XMLSchema-instance" xsi:noNamespaceSchemaLocation="http://sumo.dlr.de/xsd/netconvertConfiguration.xsd">

    <input>
        <type-files value="osmNetconvert.typ.xml"/>
        <osm-files value="B_Marzahn_urban_800.osm"/>
    </input>

    <output>
        <output-file value="B_Marzahn_urban_800.net.xml"/>
    </output>

    <projection>
        <proj.utm value="true"/>
    </projection>

    <edge_removal>
        <remove-edges.by-type value="highway.track,highway.unsurfaced,highway.raceway,highway.bridleway,highway.path,highway.footway,highway.pedestrian,highway.cycleway,highway.step,highway.steps,highway.stairs,highway.bus_guideway,highway.ford,railway.rail,railway.tram,railway.light_rail,railway.subway,railway.preserved,railway.narrow_gauge,railway.monorail,railway.funicular"/>
    </edge_removal>

</configuration>
-->
<net version="0.25">
   <location convBoundary="0.00,0.00,796.17,743.78" netOffset="-402719.55,-5824526.76" origBoundary="13.564613,52.562104,13.576572,52.568894" projParameter="+proj=utm +zone=33 +ellps=WGS84 +datum=WGS84 +units=m +no_defs"/>
   <type allow="pedestrian" id="highway.bridleway" numLanes="1" oneway="1" priority="1" speed="2.78" width="2.00"/>
   <type allow="bus" id="highway.bus_guideway" numLanes="1" oneway="1" priority="1" speed="8.33"/>
   <type allow="bicycle" id="highway.cycleway" numLanes="1" oneway="0" priority="1" speed="5.56" width="1.00"/>
   <type allow="pedestrian" id="highway.footway" numLanes="1" oneway="1" priority="1" speed="8.33" width="2.00"/>
   <type allow="army" id="highway.ford" numLanes="1" oneway="0" priority="1" speed="2.78"/>
   <type disallow="tram rail_urban rail rail_electric ship" id="highway.living_street" numLanes="1" oneway="0" priority="3" speed="2.78"/>
   <type allow="private emergency authority army vip passenger hov taxi bus coach delivery truck trailer motorcycle evehicle custom1 custom2" id="highway.motorway" numLanes="2" oneway="1" priority="13" speed="44.44"/>
   <type allow="private emergency authority army vip passenger hov taxi bus coach delivery truck trailer motorcycle evehicle custom1 custom2" id="highway.motorway_link" numLanes="1" oneway="1" priority="12" speed="22.22"/>
   <type allow="bicycle pedestrian" id="highway.path" numLanes="1" oneway="1" priority="1" speed="2.78" width="2.00"/>
   <type allow="pedestrian" id="highway.pedestrian" numLanes="1" oneway="1" priority="1" speed="8.33" width="2.00"/>
   <type disallow="tram rail_urban rail rail_electric ship" id="highway.primary" numLanes="2" oneway="0" priority="9" speed="27.78"/>
   <type disallow="tram rail_urban rail rail_electric ship" id="highway.primary_link" numLanes="1" oneway="0" priority="8" speed="22.22"/>
   <type allow="vip" id="highway.raceway" numLanes="2" oneway="0" priority="14" speed="83.33"/>
   <type disallow="tram rail_urban rail rail_electric ship" id="highway.residential" numLanes="1" oneway="0" priority="4" speed="13.89"/>
   <type disallow="tram rail_urban rail rail_electric ship" id="highway.secondary" numLanes="2" oneway="0" priority="7" speed="27.78"/>
   <type disallow="tram rail_urban rail rail_electric ship" id="highway.secondary_link" numLanes="1" oneway="0" priority="6" speed="22.22"/>
   <type allow="delivery bicycle pedestrian" id="highway.service" numLanes="1" oneway="0" priority="2" speed="5.56"/>
   <type disallow="tram rail_urban rail rail_electric ship" id="highway.services" numLanes="1" oneway="0" priority="1" speed="8.33"/>
   <type allow="pedestrian" id="highway.stairs" numLanes="1" oneway="1" priority="1" speed="1.39" width="2.00"/>
   <type allow="pedestrian" id="highway.step" numLanes="1" oneway="1" priority="1" speed="1.39" width="2.00"/>
   <type allow="pedestrian" id="highway.steps" numLanes="1" oneway="1" priority="1" speed="1.39" width="2.00"/>
   <type disallow="tram rail_urban rail rail_electric ship" id="highway.tertiary" numLanes="1" oneway="0" priority="6" speed="22.22"/>
   <type disallow="tram rail_urban rail rail_electric ship" id="highway.tertiary_link" numLanes="1" oneway="0" priority="5" speed="22.22"/>
   <type disallow="tram rail_urban rail rail_electric ship" id="highway.track" numLanes="1" oneway="0" priority="1" speed="5.56"/>
   <type disallow="tram rail_urban rail rail_electric bicycle pedestrian ship" id="highway.trunk" numLanes="2" oneway="0" priority="11" speed="27.78"/>
   <type disallow="tram rail_urban rail rail_electric bicycle pedestrian ship" id="highway.trunk_link" numLanes="1" oneway="0" priority="10" speed="22.22"/>
   <type disallow="tram rail_urban rail rail_electric ship" id="highway.unclassified" numLanes="1" oneway="0" priority="5" speed="13.89"/>
   <type disallow="tram rail_urban rail rail_electric ship" id="highway.unsurfaced" numLanes="1" oneway="0" priority="1" speed="8.33"/>
   <type allow="rail_urban" id="railway.light_rail" numLanes="1" oneway="1" priority="15" speed="27.78"/>
   <type allow="rail" id="railway.preserved" numLanes="1" oneway="1" priority="15" speed="27.78"/>
   <type allow="rail rail_electric" id="railway.rail" numLanes="1" oneway="1" priority="15" speed="83.33"/>
   <type allow="rail_urban" id="railway.subway" numLanes="1" oneway="1" priority="15" speed="27.78"/>
   <type allow="tram" id="railway.tram" numLanes="1" oneway="1" priority="15" speed="13.89"/>
   <edge function="internal" id=":1005959673_0">
      <lane disallow="tram rail_urban rail rail_electric ship" id=":1005959673_0_0" index="0" length="0.10" shape="749.87,109.51 749.85,109.52" speed="8.33"/>
   </edge>
   <edge function="internal" id=":1005959673_1">
      <lane disallow="tram rail_urban rail rail_electric ship" id=":1005959673_1_0" index="0" length="2.41" shape="749.87,109.51 748.39,109.40 747.62,108.88" speed="8.33"/>
   </edge>
   <edge function="internal" id=":1005959673_4">
      <lane id=":1005959673_4_0" index="0" length="2.41" shape="747.62,108.88 747.58,107.96 748.25,106.64" speed="8.33"/>
   </edge>
   <edge function="internal" id=":1005959673_2">
      <lane disallow="tram rail_urban rail rail_electric ship" id=":1005959673_2_0" index="0" length="0.10" shape="748.28,106.62 748.25,106.64" speed="8.33"/>
   </edge>
   <edge function="internal" id=":1005959673_3">
      <lane disallow="tram rail_urban rail rail_electric ship" id=":1005959673_3_0" index="0" length="2.41" shape="748.28,106.62 749.76,106.76 750.52,107.29" speed="8.33"/>
   </edge>
   <edge function="internal" id=":1005959673_5">
      <lane id=":1005959673_5_0" index="0" length="2.41" shape="750.52,107.29 750.55,108.21 749.85,109.52" speed="8.33"/>
   </edge>
   <edge function="internal" id=":1169523866_0">
      <lane allow="delivery bicycle pedestrian" id=":1169523866_0_0" index="0" length="7.35" shape="326.46,513.62 325.41,512.74 323.94,512.51 322.05,512.96 319.76,514.06" speed="8.33"/>
   </edge>
   <edge function="internal" id=":1169523866_1">
      <lane disallow="tram rail_urban rail rail_electric ship" id=":1169523866_1_0" index="0" length="10.88" shape="326.46,513.62 324.56,511.18 322.84,509.64 320.83,508.42 318.07,506.94" speed="8.33"/>
   </edge>
   <edge function="internal" id=":1169523866_2">
      <lane disallow="tram rail_urban rail rail_electric ship" id=":1169523866_2_0" index="0" length="2.41" shape="326.46,513.62 326.43,512.14 326.87,511.33" speed="8.33"/>
   </edge>
   <edge function="internal" id=":1169523866_9">
      <lane id=":1169523866_9_0" index="0" length="2.41" shape="326.87,511.33 327.79,511.19 329.17,511.74" speed="8.33"/>
   </edge>
   <edge function="internal" id=":1169523866_3">
      <lane disallow="tram rail_urban rail rail_electric ship" id=":1169523866_3_0" index="0" length="12.38" shape="319.65,504.05 322.59,505.69 324.99,507.26 327.10,509.14 329.17,511.74" speed="8.33"/>
   </edge>
   <edge function="internal" id=":1169523866_4">
      <lane allow="delivery bicycle pedestrian" id=":1169523866_4_0" index="0" length="6.31" shape="319.65,504.05 323.03,506.52 323.91,508.46" speed="8.33"/>
   </edge>
   <edge function="internal" id=":1169523866_5">
      <lane disallow="tram rail_urban rail rail_electric ship" id=":1169523866_5_0" index="0" length="2.41" shape="319.65,504.05 320.34,505.37 320.31,506.29" speed="8.33"/>
   </edge>
   <edge function="internal" id=":1169523866_10">
      <lane id=":1169523866_10_0" index="0" length="7.53" shape="323.91,508.46 324.17,509.01 323.08,511.53 319.76,514.06" speed="8.33"/>
   </edge>
   <edge function="internal" id=":1169523866_11">
      <lane id=":1169523866_11_0" index="0" length="2.41" shape="320.31,506.29 319.55,506.82 318.07,506.94" speed="8.33"/>
   </edge>
   <edge function="internal" id=":1169523866_6">
      <lane disallow="tram rail_urban rail rail_electric ship" id=":1169523866_6_0" index="0" length="5.89" shape="318.11,511.20 319.52,510.12 319.99,509.05 319.50,507.99 318.07,506.94" speed="8.33"/>
   </edge>
   <edge function="internal" id=":1169523866_7">
      <lane disallow="tram rail_urban rail rail_electric ship" id=":1169523866_7_0" index="0" length="12.29" shape="318.11,511.20 321.67,509.59 324.69,509.14 327.20,509.86 329.17,511.74" speed="8.33"/>
   </edge>
   <edge function="internal" id=":1169523866_8">
      <lane allow="delivery bicycle pedestrian" id=":1169523866_8_0" index="0" length="4.82" shape="318.11,511.20 319.60,511.30 320.37,511.81 320.42,512.73 319.76,514.06" speed="8.33"/>
   </edge>
   <edge function="internal" id=":1169523870_0">
      <lane disallow="tram rail_urban rail rail_electric ship" id=":1169523870_0_0" index="0" length="0.19" shape="533.57,536.94 533.40,537.03" speed="8.33"/>
   </edge>
   <edge function="internal" id=":1169523870_1">
      <lane disallow="tram rail_urban rail rail_electric ship" id=":1169523870_1_0" index="0" length="2.41" shape="533.57,536.94 532.08,536.85 531.31,536.34" speed="8.33"/>
   </edge>
   <edge function="internal" id=":1169523870_4">
      <lane id=":1169523870_4_0" index="0" length="2.41" shape="531.31,536.34 531.26,535.42 531.92,534.08" speed="8.33"/>
   </edge>
   <edge function="internal" id=":1169523870_2">
      <lane disallow="tram rail_urban rail rail_electric ship" id=":1169523870_2_0" index="0" length="0.10" shape="531.87,534.11 531.92,534.08" speed="8.33"/>
   </edge>
   <edge function="internal" id=":1169523870_3">
      <lane disallow="tram rail_urban rail rail_electric ship" id=":1169523870_3_0" index="0" length="2.41" shape="531.87,534.11 533.36,534.27 534.10,534.81" speed="8.33"/>
   </edge>
   <edge function="internal" id=":1169523870_5">
      <lane id=":1169523870_5_0" index="0" length="2.41" shape="534.10,534.81 534.12,535.73 533.40,537.03" speed="8.33"/>
   </edge>
   <edge function="internal" id=":1169523891_0">
      <lane disallow="tram rail_urban rail rail_electric ship" id=":1169523891_0_0" index="0" length="10.82" shape="213.99,573.43 210.50,575.50 207.93,577.28 206.27,578.77 205.54,579.97" speed="8.33"/>
   </edge>
   <edge function="internal" id=":1169523891_1">
      <lane disallow="tram rail_urban rail rail_electric ship" id=":1169523891_1_0" index="0" length="17.05" shape="213.99,573.43 208.94,575.58 205.93,575.22 204.98,572.35 206.08,566.97" speed="8.33"/>
   </edge>
   <edge function="internal" id=":1169523891_2">
      <lane allow="delivery bicycle pedestrian" id=":1169523891_2_0" index="0" length="4.82" shape="213.99,573.43 212.51,573.32 211.75,572.80 211.71,571.88 212.38,570.55" speed="8.33"/>
   </edge>
   <edge function="internal" id=":1169523891_3">
      <lane allow="delivery bicycle pedestrian" id=":1169523891_3_0" index="0" length="6.80" shape="209.23,567.97 208.79,570.12 209.16,571.27 210.36,571.41 212.38,570.55" speed="8.33"/>
   </edge>
   <edge function="internal" id=":1169523891_4">
      <lane disallow="tram rail_urban rail rail_electric ship" id=":1169523891_4_0" index="0" length="12.55" shape="209.23,567.97 208.18,571.18 207.29,573.94 206.44,576.72 205.54,579.97" speed="8.33"/>
   </edge>
   <edge function="internal" id=":1169523891_5">
      <lane disallow="tram rail_urban rail rail_electric ship" id=":1169523891_5_0" index="0" length="2.41" shape="209.23,567.97 208.06,568.90 207.15,569.04" speed="8.33"/>
   </edge>
   <edge function="internal" id=":1169523891_9">
      <lane id=":1169523891_9_0" index="0" length="2.41" shape="207.15,569.04 206.49,568.40 206.08,566.97" speed="8.33"/>
   </edge>
   <edge function="internal" id=":1169523891_6">
      <lane disallow="tram rail_urban rail rail_electric ship" id=":1169523891_6_0" index="0" length="12.73" shape="202.35,579.13 203.25,575.86 204.12,573.02 205.03,570.19 206.08,566.97" speed="8.33"/>
   </edge>
   <edge function="internal" id=":1169523891_7">
      <lane allow="delivery bicycle pedestrian" id=":1169523891_7_0" index="0" length="4.72" shape="202.35,579.13 203.32,577.29 205.17,575.40" speed="8.33"/>
   </edge>
   <edge function="internal" id=":1169523891_8">
      <lane disallow="tram rail_urban rail rail_electric ship" id=":1169523891_8_0" index="0" length="2.41" shape="202.35,579.13 203.46,578.14 204.36,577.95" speed="8.33"/>
   </edge>
   <edge function="internal" id=":1169523891_10">
      <lane id=":1169523891_10_0" index="0" length="8.71" shape="205.17,575.40 205.31,575.25 208.33,573.01 212.38,570.55" speed="8.33"/>
   </edge>
   <edge function="internal" id=":1169523891_11">
      <lane id=":1169523891_11_0" index="0" length="2.41" shape="204.36,577.95 205.06,578.56 205.54,579.97" speed="8.33"/>
   </edge>
   <edge function="internal" id=":134560302_0">
      <lane disallow="tram rail_urban rail rail_electric ship" id=":134560302_0_0" index="0" length="0.38" shape="649.60,599.18 649.28,599.38" speed="27.78"/>
   </edge>
   <edge function="internal" id=":134560302_1">
      <lane disallow="tram rail_urban rail rail_electric ship" id=":134560302_1_0" index="0" length="2.41" shape="649.60,599.18 648.12,599.18 647.31,598.73" speed="27.78"/>
   </edge>
   <edge function="internal" id=":134560302_4">
      <lane id=":134560302_4_0" index="0" length="2.41" shape="647.31,598.73 647.20,597.81 647.76,596.44" speed="27.78"/>
   </edge>
   <edge function="internal" id=":134560302_2">
      <lane disallow="tram rail_urban rail rail_electric ship" id=":134560302_2_0" index="0" length="0.12" shape="647.66,596.50 647.76,596.44" speed="27.78"/>
   </edge>
   <edge function="internal" id=":134560302_3">
      <lane disallow="tram rail_urban rail rail_electric ship" id=":134560302_3_0" index="0" length="2.41" shape="647.66,596.50 649.14,596.61 649.91,597.13" speed="27.78"/>
   </edge>
   <edge function="internal" id=":134560302_5">
      <lane id=":134560302_5_0" index="0" length="2.41" shape="649.91,597.13 649.96,598.05 649.28,599.38" speed="27.78"/>
   </edge>
   <edge function="internal" id=":1360781303_0">
      <lane allow="delivery bicycle pedestrian" id=":1360781303_0_0" index="0" length="4.82" shape="4.21,718.70 2.73,718.57 1.97,718.05 1.94,717.12 2.63,715.81" speed="5.56"/>
   </edge>
   <edge function="internal" id=":1401579922_0">
      <lane disallow="tram rail_urban rail rail_electric ship" id=":1401579922_0_0" index="0" length="0.10" shape="500.91,682.58 500.94,682.56" speed="27.78"/>
   </edge>
   <edge function="internal" id=":1401579922_1">
      <lane disallow="tram rail_urban rail rail_electric ship" id=":1401579922_1_0" index="0" length="2.41" shape="500.91,682.58 499.42,682.46 498.66,681.95" speed="27.78"/>
   </edge>
   <edge function="internal" id=":1401579922_4">
      <lane id=":1401579922_4_0" index="0" length="2.41" shape="498.66,681.95 498.62,681.03 499.29,679.70" speed="27.78"/>
   </edge>
   <edge function="internal" id=":1401579922_2">
      <lane disallow="tram rail_urban rail rail_electric ship" id=":1401579922_2_0" index="0" length="0.10" shape="499.28,679.70 499.29,679.70" speed="27.78"/>
   </edge>
   <edge function="internal" id=":1401579922_3">
      <lane disallow="tram rail_urban rail rail_electric ship" id=":1401579922_3_0" index="0" length="2.41" shape="499.28,679.70 500.77,679.80 501.54,680.31" speed="27.78"/>
   </edge>
   <edge function="internal" id=":1401579922_5">
      <lane id=":1401579922_5_0" index="0" length="2.41" shape="501.54,680.31 501.59,681.23 500.94,682.56" speed="27.78"/>
   </edge>
   <edge function="internal" id=":1401579925_0">
      <lane disallow="tram rail_urban rail rail_electric ship" id=":1401579925_0_0" index="0" length="0.10" shape="549.95,740.62 549.98,740.61" speed="8.33"/>
   </edge>
   <edge function="internal" id=":1401579925_1">
      <lane disallow="tram rail_urban rail rail_electric ship" id=":1401579925_1_0" index="0" length="2.41" shape="549.95,740.62 548.47,740.51 547.70,739.99" speed="8.33"/>
   </edge>
   <edge function="internal" id=":1401579925_4">
      <lane id=":1401579925_4_0" index="0" length="2.41" shape="547.70,739.99 547.66,739.07 548.33,737.75" speed="8.33"/>
   </edge>
   <edge function="internal" id=":1401579925_2">
      <lane disallow="tram rail_urban rail rail_electric ship" id=":1401579925_2_0" index="0" length="0.10" shape="548.32,737.75 548.33,737.75" speed="8.33"/>
   </edge>
   <edge function="internal" id=":1401579925_3">
      <lane disallow="tram rail_urban rail rail_electric ship" id=":1401579925_3_0" index="0" length="2.41" shape="548.32,737.75 549.81,737.84 550.58,738.35" speed="8.33"/>
   </edge>
   <edge function="internal" id=":1401579925_5">
      <lane id=":1401579925_5_0" index="0" length="2.41" shape="550.58,738.35 550.63,739.27 549.98,740.61" speed="8.33"/>
   </edge>
   <edge function="internal" id=":1402147487_0">
      <lane disallow="tram rail_urban rail rail_electric ship" id=":1402147487_0_0" index="0" length="0.10" shape="648.41,685.49 648.40,685.50" speed="8.33"/>
   </edge>
   <edge function="internal" id=":1402147487_1">
      <lane disallow="tram rail_urban rail rail_electric ship" id=":1402147487_1_0" index="0" length="2.41" shape="648.41,685.49 646.93,685.38 646.16,684.86" speed="8.33"/>
   </edge>
   <edge function="internal" id=":1402147487_4">
      <lane id=":1402147487_4_0" index="0" length="2.41" shape="646.16,684.86 646.12,683.94 646.80,682.61" speed="8.33"/>
   </edge>
   <edge function="internal" id=":1402147487_2">
      <lane disallow="tram rail_urban rail rail_electric ship" id=":1402147487_2_0" index="0" length="0.10" shape="646.81,682.60 646.80,682.61" speed="8.33"/>
   </edge>
   <edge function="internal" id=":1402147487_3">
      <lane disallow="tram rail_urban rail rail_electric ship" id=":1402147487_3_0" index="0" length="2.41" shape="646.81,682.60 648.30,682.73 649.05,683.26" speed="8.33"/>
   </edge>
   <edge function="internal" id=":1402147487_5">
      <lane id=":1402147487_5_0" index="0" length="2.41" shape="649.05,683.26 649.09,684.18 648.40,685.50" speed="8.33"/>
   </edge>
   <edge function="internal" id=":1490442924_0">
      <lane allow="delivery bicycle pedestrian" id=":1490442924_0_0" index="0" length="0.10" shape="529.72,696.05 529.71,696.07" speed="8.33"/>
   </edge>
   <edge function="internal" id=":1490442924_1">
      <lane allow="delivery bicycle pedestrian" id=":1490442924_1_0" index="0" length="2.41" shape="529.72,696.05 528.39,696.73 527.47,696.69" speed="8.33"/>
   </edge>
   <edge function="internal" id=":1490442924_4">
      <lane id=":1490442924_4_0" index="0" length="2.41" shape="527.47,696.69 526.95,695.93 526.84,694.44" speed="8.33"/>
   </edge>
   <edge function="internal" id=":1490442924_2">
      <lane allow="delivery bicycle pedestrian" id=":1490442924_2_0" index="0" length="0.10" shape="526.85,694.43 526.84,694.44" speed="8.33"/>
   </edge>
   <edge function="internal" id=":1490442924_3">
      <lane allow="delivery bicycle pedestrian" id=":1490442924_3_0" index="0" length="2.41" shape="526.85,694.43 528.18,693.76 529.10,693.81" speed="8.33"/>
   </edge>
   <edge function="internal" id=":1490442924_5">
      <lane id=":1490442924_5_0" index="0" length="2.41" shape="529.10,693.81 529.61,694.58 529.71,696.07" speed="8.33"/>
   </edge>
   <edge function="internal" id=":1838691518_0">
      <lane disallow="tram rail_urban rail rail_electric ship" id=":1838691518_0_0" index="0" length="0.10" shape="688.41,662.13 688.41,662.13" speed="8.33"/>
   </edge>
   <edge function="internal" id=":1838691518_1">
      <lane disallow="tram rail_urban rail rail_electric ship" id=":1838691518_1_0" index="0" length="2.41" shape="688.41,662.13 688.48,660.64 688.97,659.86" speed="8.33"/>
   </edge>
   <edge function="internal" id=":1838691518_4">
      <lane id=":1838691518_4_0" index="0" length="2.41" shape="688.97,659.86 689.89,659.79 691.24,660.42" speed="8.33"/>
   </edge>
   <edge function="internal" id=":1838691518_2">
      <lane disallow="tram rail_urban rail rail_electric ship" id=":1838691518_2_0" index="0" length="0.10" shape="691.24,660.42 691.24,660.42" speed="8.33"/>
   </edge>
   <edge function="internal" id=":1838691518_3">
      <lane disallow="tram rail_urban rail rail_electric ship" id=":1838691518_3_0" index="0" length="2.41" shape="691.24,660.42 691.17,661.91 690.67,662.69" speed="8.33"/>
   </edge>
   <edge function="internal" id=":1838691518_5">
      <lane id=":1838691518_5_0" index="0" length="2.41" shape="690.67,662.69 689.75,662.76 688.41,662.13" speed="8.33"/>
   </edge>
   <edge function="internal" id=":1838696893_0">
      <lane allow="delivery bicycle pedestrian" id=":1838696893_0_0" index="0" length="0.14" shape="638.92,648.00 638.85,647.88" speed="8.33"/>
   </edge>
   <edge function="internal" id=":1838696893_1">
      <lane allow="delivery bicycle pedestrian" id=":1838696893_1_0" index="0" length="2.41" shape="638.92,648.00 639.08,646.52 639.63,645.78" speed="8.33"/>
   </edge>
   <edge function="internal" id=":1838696893_4">
      <lane id=":1838696893_4_0" index="0" length="2.41" shape="639.63,645.78 640.55,645.77 641.85,646.49" speed="8.33"/>
   </edge>
   <edge function="internal" id=":1838696893_2">
      <lane allow="delivery bicycle pedestrian" id=":1838696893_2_0" index="0" length="0.42" shape="641.64,646.13 641.85,646.49" speed="8.33"/>
   </edge>
   <edge function="internal" id=":1838696893_3">
      <lane allow="delivery bicycle pedestrian" id=":1838696893_3_0" index="0" length="2.41" shape="641.64,646.13 641.60,647.61 641.12,648.40" speed="8.33"/>
   </edge>
   <edge function="internal" id=":1838696893_5">
      <lane id=":1838696893_5_0" index="0" length="2.41" shape="641.12,648.40 640.20,648.49 638.85,647.88" speed="8.33"/>
   </edge>
   <edge function="internal" id=":1838848885_0">
      <lane disallow="tram rail_urban rail rail_electric ship" id=":1838848885_0_0" index="0" length="0.66" shape="336.01,111.31 335.38,111.10" speed="8.33"/>
   </edge>
   <edge function="internal" id=":1838848885_1">
      <lane disallow="tram rail_urban rail rail_electric ship" id=":1838848885_1_0" index="0" length="2.07" shape="336.01,111.31 335.36,109.97 335.40,109.39" speed="8.33"/>
   </edge>
   <edge function="internal" id=":1838848885_4">
      <lane id=":1838848885_4_0" index="0" length="2.75" shape="335.40,109.39 335.43,109.05 336.20,108.55 337.68,108.47" speed="8.33"/>
   </edge>
   <edge function="internal" id=":1838848885_2">
      <lane disallow="tram rail_urban rail rail_electric ship" id=":1838848885_2_0" index="0" length="2.03" shape="335.75,107.82 337.68,108.47" speed="8.33"/>
   </edge>
   <edge function="internal" id=":1838848885_3">
      <lane disallow="tram rail_urban rail rail_electric ship" id=":1838848885_3_0" index="0" length="2.41" shape="335.75,107.82 336.89,108.78 337.21,109.65" speed="8.33"/>
   </edge>
   <edge function="internal" id=":1838848885_5">
      <lane id=":1838848885_5_0" index="0" length="2.41" shape="337.21,109.65 336.71,110.42 335.38,111.10" speed="8.33"/>
   </edge>
   <edge function="internal" id=":213222649_0">
      <lane allow="delivery bicycle pedestrian" id=":213222649_0_0" index="0" length="9.70" shape="513.78,718.41 505.29,723.10" speed="8.33"/>
   </edge>
   <edge function="internal" id=":213222649_1">
      <lane disallow="tram rail_urban rail rail_electric ship" id=":213222649_1_0" index="0" length="10.43" shape="513.78,718.41 511.16,719.45 508.82,719.39 506.75,718.23 504.96,715.96" speed="8.33"/>
   </edge>
   <edge function="internal" id=":213222649_2">
      <lane allow="delivery bicycle pedestrian" id=":213222649_2_0" index="0" length="4.82" shape="513.78,718.41 512.30,718.32 511.53,717.81 511.47,716.89 512.13,715.55" speed="8.33"/>
   </edge>
   <edge function="internal" id=":213222649_3">
      <lane allow="delivery bicycle pedestrian" id=":213222649_3_0" index="0" length="5.13" shape="507.80,714.29 508.69,715.42 509.71,716.01 510.86,716.06 512.13,715.55" speed="8.33"/>
   </edge>
   <edge function="internal" id=":213222649_4">
      <lane allow="delivery bicycle pedestrian" id=":213222649_4_0" index="0" length="10.56" shape="507.80,714.29 508.90,716.98 508.85,719.35 507.65,721.39 505.29,723.10" speed="8.33"/>
   </edge>
   <edge function="internal" id=":213222649_5">
      <lane disallow="tram rail_urban rail rail_electric ship" id=":213222649_5_0" index="0" length="4.82" shape="507.80,714.29 507.72,715.77 507.21,716.55 506.29,716.61 504.96,715.96" speed="8.33"/>
   </edge>
   <edge function="internal" id=":213222649_6">
      <lane disallow="tram rail_urban rail rail_electric ship" id=":213222649_6_0" index="0" length="5.06" shape="503.75,720.18 504.88,719.36 505.46,718.38 505.48,717.25 504.96,715.96" speed="8.33"/>
   </edge>
   <edge function="internal" id=":213222649_7">
      <lane allow="delivery bicycle pedestrian" id=":213222649_7_0" index="0" length="9.57" shape="503.75,720.18 512.13,715.55" speed="8.33"/>
   </edge>
   <edge function="internal" id=":213222649_8">
      <lane allow="delivery bicycle pedestrian" id=":213222649_8_0" index="0" length="4.82" shape="503.75,720.18 505.23,720.33 505.98,720.87 506.00,721.79 505.29,723.10" speed="8.33"/>
   </edge>
   <edge function="internal" id=":213222653_0">
      <lane allow="delivery bicycle pedestrian" id=":213222653_0_0" index="0" length="4.82" shape="477.93,722.53 476.94,721.43 476.75,720.52 477.35,719.83 478.76,719.34" speed="8.33"/>
   </edge>
   <edge function="internal" id=":213223414_0">
      <lane allow="delivery bicycle pedestrian" id=":213223414_0_0" index="0" length="0.10" shape="706.11,604.82 706.11,604.83" speed="8.33"/>
   </edge>
   <edge function="internal" id=":213223414_1">
      <lane allow="delivery bicycle pedestrian" id=":213223414_1_0" index="0" length="2.41" shape="706.11,604.82 704.94,605.74 704.02,605.87" speed="8.33"/>
   </edge>
   <edge function="internal" id=":213223414_4">
      <lane id=":213223414_4_0" index="0" length="2.41" shape="704.02,605.87 703.37,605.22 702.98,603.78" speed="8.33"/>
   </edge>
   <edge function="internal" id=":213223414_2">
      <lane allow="delivery bicycle pedestrian" id=":213223414_2_0" index="0" length="0.10" shape="702.99,603.74 702.98,603.78" speed="8.33"/>
   </edge>
   <edge function="internal" id=":213223414_3">
      <lane allow="delivery bicycle pedestrian" id=":213223414_3_0" index="0" length="2.41" shape="702.99,603.74 704.18,602.84 705.10,602.73" speed="8.33"/>
   </edge>
   <edge function="internal" id=":213223414_5">
      <lane id=":213223414_5_0" index="0" length="2.41" shape="705.10,602.73 705.74,603.39 706.11,604.83" speed="8.33"/>
   </edge>
   <edge function="internal" id=":213225103_0">
      <lane allow="delivery bicycle pedestrian" id=":213225103_0_0" index="0" length="4.82" shape="447.62,688.60 446.19,689.00 445.30,688.77 444.94,687.92 445.12,686.44" speed="8.33"/>
   </edge>
   <edge function="internal" id=":213225104_0">
      <lane allow="delivery bicycle pedestrian" id=":213225104_0_0" index="0" length="5.14" shape="472.76,658.02 471.92,656.86 470.93,656.29 469.79,656.33 468.50,656.96" speed="8.33"/>
   </edge>
   <edge function="internal" id=":213225104_1">
      <lane disallow="tram rail_urban rail rail_electric ship" id=":213225104_1_0" index="0" length="9.87" shape="472.76,658.02 467.96,649.39" speed="8.33"/>
   </edge>
   <edge function="internal" id=":213225104_2">
      <lane allow="delivery bicycle pedestrian" id=":213225104_2_0" index="0" length="5.56" shape="472.76,658.02 471.73,655.22 471.77,652.74 471.82,652.65" speed="6.95"/>
   </edge>
   <edge function="internal" id=":213225104_3">
      <lane disallow="tram rail_urban rail rail_electric ship" id=":213225104_3_0" index="0" length="2.41" shape="472.76,658.02 472.91,656.54 473.45,655.79" speed="8.33"/>
   </edge>
   <edge function="internal" id=":213225104_16">
      <lane id=":213225104_16_0" index="0" length="5.15" shape="471.82,652.65 472.88,650.60 475.06,648.79" speed="6.95"/>
   </edge>
   <edge function="internal" id=":213225104_17">
      <lane id=":213225104_17_0" index="0" length="2.41" shape="473.45,655.79 474.37,655.77 475.68,656.48" speed="8.33"/>
   </edge>
   <edge function="internal" id=":213225104_4">
      <lane disallow="tram rail_urban rail rail_electric ship" id=":213225104_4_0" index="0" length="5.62" shape="476.78,651.61 475.67,652.54 475.11,653.67 475.12,654.98 475.68,656.48" speed="6.95"/>
   </edge>
   <edge function="internal" id=":213225104_5">
      <lane allow="delivery bicycle pedestrian" id=":213225104_5_0" index="0" length="9.86" shape="476.78,651.61 468.50,656.96" speed="6.95"/>
   </edge>
   <edge function="internal" id=":213225104_6">
      <lane disallow="tram rail_urban rail rail_electric ship" id=":213225104_6_0" index="0" length="10.40" shape="476.78,651.61 474.15,652.73 471.81,652.73 469.75,651.62 467.96,649.39" speed="6.95"/>
   </edge>
   <edge function="internal" id=":213225104_7">
      <lane allow="delivery bicycle pedestrian" id=":213225104_7_0" index="0" length="4.82" shape="476.78,651.61 475.29,651.54 474.51,651.05 474.43,650.13 475.06,648.79" speed="5.56"/>
   </edge>