<?xml version="1.0" encoding="utf-8"?><!-- generated on 10/11/17 17:50:30 by SUMO polyconvert Version 0.25.0
<?xml version="1.0" encoding="UTF-8"?>

<configuration xmlns:xsi="http://www.w3.org/2001/XMLSchema-instance" xsi:noNamespaceSchemaLocation="http://sumo.dlr.de/xsd/polyconvertConfiguration.xsd">

    <input>
        <net-file value="B_Marzahn_urban_800.net.xml"/>
        <osm-files value="B_Marzahn_urban_800.osm"/>
        <type-file value="osmPolyconvert.typ.xml"/>
    </input>

    <output>
        <output-file value="B_Marzahn_urban_800.poly.xml"/>
    </output>

    <projection>
        <proj.utm value="true"/>
    </projection>

    <processing>
        <poi-layer-offset value="5"/>
    </processing>

</configuration>
-->
<additional>
   <location convBoundary="-11.40,-15.15,803.49,754.53" netOffset="-402719.55,-5824526.76" origBoundary="13.564603,52.562101,13.576593,52.568900" projParameter="+proj=utm +zone=33 +ellps=WGS84 +datum=WGS84 +units=m +no_defs"/>
   <poly color="207,245,201" fill="1" id="101311941" layer="-2.00" shape="282.27,473.25 276.14,461.71 241.64,479.95 247.77,491.49 282.27,473.25" type="leisure"/>
   <poly color="207,245,201" fill="1" id="101311945" layer="-2.00" shape="361.89,427.91 355.69,416.41 333.00,428.59 339.20,440.09 361.89,427.91" type="leisure"/>
   <poly color="207,245,201" fill="1" id="101311946" layer="-2.00" shape="422.19,478.72 392.98,425.31 357.51,444.54 366.88,462.54 422.19,478.72" type="leisure"/>
   <poly color="184,184,179" fill="1" id="10258776" layer="-1.00" shape="14.48,719.42" type="parking"/>
   <poly color="red" fill="1" id="121595043" layer="-1.00" shape="44.59,219.47 34.53,202.18 82.19,174.50 92.24,191.79 44.59,219.47" type="building"/>
   <poly color="red" fill="1" id="121595046" layer="-1.00" shape="-9.95,272.69 27.01,227.63 37.19,244.90 -9.95,272.69" type="building"/>
   <poly color="red" fill="1" id="125600518" layer="-1.00" shape="200.33,248.45 215.63,239.82 179.77,176.22 164.46,184.86 200.33,248.45" type="building"/>
   <poly color="red" fill="1" id="125600519" layer="-1.00" shape="128.47,182.70 171.09,159.43 147.30,116.07 104.69,139.33 128.47,182.70" type="building"/>
   <poly color="red" fill="1" id="125600521" layer="-1.00" shape="87.46,311.12 93.74,322.32 151.90,289.72 145.62,278.52 87.46,311.12" type="building"/>
   <poly color="red" fill="1" id="125600522" layer="-1.00" shape="2.87,210.22" type="building"/>
   <poly color="237,199,199" fill="0" id="129030656" layer="-1.00" shape="129.93,192.70 79.22,106.94" type="amenity"/>
   <poly color="194,194,130" fill="0" id="173043375" layer="-3.00" shape="706.10,729.29 680.07,686.83 676.17,684.70 672.17,683.84 668.18,683.56" type="landuse"/>
   <poly color="235,235,227" fill="0" id="173060735" layer="-3.00" shape="780.76,158.05 754.20,110.90 662.86,162.69 658.95,156.01 650.54,146.35 643.45,138.24 597.74,122.34 460.20,200.38 659.71,544.71 764.30,717.35" type="residential"/>
   <poly color="235,235,227" fill="1" id="173060736" layer="-3.00" shape="680.07,686.83 614.75,568.00 416.28,234.15 400.17,205.53 335.29,89.34 134.42,196.62 185.88,289.21 11.26,386.35 668.18,683.56 672.17,683.84 676.17,684.70 680.07,686.83" type="residential"/>
   <poly color="red" fill="1" id="191362786" layer="-1.00" shape="104.31,5.79" type="building"/>
   <poly color="red" fill="1" id="205529571" layer="-1.00" shape="565.18,99.19 592.78,84.63 603.59,104.29 576.17,119.78 565.18,99.19" type="building"/>
   <poly color="140,196,107" fill="1" id="22978701" layer="-4.00" shape="477.06,0.20 475.69,-5.06 496.34,-9.29 496.62,-4.21 494.51,-0.36 489.85,3.00 485.52,4.90 480.59,3.73 477.06,0.20" type="natural"/>
   <poly color="181,209,209" fill="1" id="22978709" layer="-4.00" shape="470.54,19.89 480.28,24.78 486.68,26.83 496.28,24.64 503.50,21.96 511.94,16.53 517.14,12.43 524.15,8.31 526.78,3.54 529.03,-2.13 528.39,-7.38 457.78,-5.60 459.04,2.72 461.20,8.74 465.27,14.39 470.54,19.89" type="water"/>
   <poly color="207,245,201" fill="1" id="23885158" layer="-2.00" shape="209.30,125.18 184.13,80.05 248.61,44.27 273.78,89.40 209.30,125.18" type="leisure"/>
   <poly color="207,245,201" fill="1" id="23885756" layer="-2.00" shape="291.43,112.75 320.03,96.54 289.11,42.01 279.02,47.74 260.52,58.22 291.43,112.75" type="leisure"/>
   <poly color="237,199,199" fill="1" id="24936345" layer="-1.00" shape="791.12,133.95 757.07,71.11 761.83,84.53 791.12,133.95" type="amenity"/>
   <poly color="red" fill="0" id="24936386" layer="-1.00" shape="568.64,732.04 557.52,738.44" type="building"/>
   <poly color="red" fill="1" id="25041070" layer="-1.00" shape="628.13,682.45 630.53,686.60 642.51,679.69 631.89,661.35 617.02,669.92 613.35,663.57 550.19,699.98 553.56,705.79 549.52,708.12 538.74,714.33 549.36,732.67 560.04,726.50 557.95,722.91 628.13,682.45" type="building"/>
   <poly color="237,199,199" fill="1" id="25041074" layer="-1.00" shape="478.23,623.43 498.35,612.05 504.65,608.49 529.90,594.22 548.83,627.71 497.16,656.91 478.23,623.43" type="amenity"/>
   <poly color="red" fill="1" id="25041074#1" layer="-1.00" shape="478.23,623.43 498.35,612.05 504.65,608.49 529.90,594.22 548.83,627.71 497.16,656.91 478.23,623.43" type="building"/>
   <poly color="red" fill="1" id="25041086" layer="-1.00" shape="549.97,517.54 539.87,497.31 449.04,465.44 418.25,409.16 410.45,413.57 404.43,416.98 438.22,477.85 526.72,509.18 537.44,524.15 549.97,517.54" type="building"/>
   <poly color="red" fill="1" id="25041114" layer="-1.00" shape="470.07,557.12 461.58,541.87 458.58,542.85 454.76,538.72 449.86,535.52 450.72,532.73 432.93,528.02 432.40,529.09 421.25,525.90 397.67,519.61 397.13,521.00 373.49,514.29 373.16,515.58 366.95,513.89 366.19,514.85 364.06,512.75 364.92,510.95 363.49,509.64 355.36,495.90 354.23,496.09 329.23,453.78 318.92,459.76 323.68,467.62 334.27,486.58 343.54,502.75 344.43,502.52 353.69,517.80 357.74,524.24 364.16,526.35 381.25,530.86 381.65,529.72 428.55,542.55 428.99,541.33 446.27,546.30 449.04,548.52 453.08,556.32 458.05,564.27 470.07,557.12" type="building"/>
   <poly color="red" fill="1" id="25041119" layer="-1.00" shape="114.49,533.15 121.66,529.05 124.65,534.26 164.41,511.46 148.96,484.52 137.42,464.38 96.90,487.60 102.25,496.93 95.84,500.61 114.49,533.15" type="building"/>
   <poly color="red" fill="1" id="25041140" layer="-1.00" shape="91.25,670.01 124.88,651.88 134.23,646.65 140.28,657.82 97.28,681.12 91.25,670.01" type="building"/>
   <poly color="red" fill="0" id="25041154" layer="-1.00" shape="217.20,715.03 268.79,685.93 287.26,719.12 296.69,735.80" type="building"/>
   <poly color="237,199,255" fill="0" id="25041154#1" layer="-1.00" shape="217.20,715.03 268.79,685.93 287.26,719.12 296.69,735.80" type="shop"/>
   <poly color="red" fill="1" id="25041449" layer="-1.00" shape="762.70,655.13 786.96,696.78 775.49,703.43 751.23,661.78 756.28,658.86 762.70,655.13" type="building"/>
   <poly color="red" fill="0" id="25041498" layer="-1.00" shape="721.54,224.00 724.61,212.20" type="building"/>
   <poly color="red" fill="0" id="25041507" layer="-1.00" shape="785.41,167.45 791.59,178.27" type="building"/>
   <poly color="red" fill="1" id="25041521" layer="-1.00" shape="766.26,179.20 776.64,173.26 752.58,131.43 742.32,137.31 740.40,133.97 687.71,164.13 694.25,175.49 691.41,177.11 712.34,213.48 723.17,207.28 702.05,170.58 746.62,145.07 766.26,179.20" type="building"/>
   <poly color="red" fill="1" id="25041524" layer="-1.00" shape="596.19,131.03 581.40,138.96 627.51,224.44 642.30,216.50 596.19,131.03" type="building"/>
   <poly color="red" fill="1" id="25041533" layer="-1.00" shape="586.10,249.13 538.20,165.95 523.47,174.39 571.38,257.56 586.10,249.13" type="building"/>
   <poly color="red" fill="1" id="25041560" layer="-1.00" shape="484.15,195.89 532.77,279.46 515.85,289.25 467.23,205.68 484.15,195.89" type="building"/>
   <poly color="red" fill="1" id="25041569" layer="-1.00" shape="613.80,429.08 602.71,435.31 573.02,382.72 575.72,381.21 568.81,368.97 621.38,339.43 623.50,343.19 634.95,336.75 664.69,389.43 653.75,395.57 628.63,351.09 583.95,376.19 613.80,429.08" type="building"/>
   <poly color="red" fill="1" id="25041570" layer="-1.00" shape="689.70,432.91 668.68,395.90 657.83,402.04 678.86,439.04 689.70,432.91" type="building"/>
   <poly color="red" fill="1" id="25041573" layer="-1.00" shape="398.97,322.87 425.43,307.62 451.41,292.65 509.39,392.73 456.96,422.96 398.97,322.87" type="building"/>
   <poly color="237,199,255" fill="1" id="25041573#1" layer="-1.00" shape="398.97,322.87 425.43,307.62 451.41,292.65 509.39,392.73 456.96,422.96 398.97,322.87" type="shop"/>
   <poly color="red" fill="1" id="25041597" layer="-1.00" shape="680.15,348.15 746.22,366.34 742.47,379.04 676.56,360.40 680.15,348.15" type="building"/>
   <poly color="red" fill="1" id="25041599" layer="-1.00" shape="389.05,267.39 382.91,256.25 413.59,239.42 437.99,283.70 408.47,299.89 402.80,289.62 418.98,280.75 406.38,257.88 389.05,267.39" type="building"/>
   <poly color="red" fill="1" id="25041600" layer="-1.00" shape="634.26,431.08 623.46,437.33 672.61,521.74 682.83,515.80 689.24,526.79 752.67,490.03 753.94,492.22 747.90,481.09 746.52,478.73 683.33,515.35 634.26,431.08" type="building"/>
   <poly color="red" fill="1" id="25041614" layer="-1.00" shape="755.63,418.26 749.28,407.21 786.16,386.14 787.98,389.32 798.89,383.08 792.40,397.25 755.63,418.26" type="building"/>
   <poly color="red" fill="1" id="25331564" layer="-1.00" shape="732.32,617.60 725.69,606.12 732.32,617.60" type="building"/>
   <poly color="red" fill="0" id="25375185" layer="-1.00" shape="157.84,708.51 152.85,699.56 164.16,693.26" type="building"/>
   <poly color="red" fill="1" id="25375186" layer="-1.00" shape="19.81,542.62 13.78,531.50 47.41,513.38 56.76,508.15 62.81,519.31 19.81,542.62" type="building"/>
   <poly color="242,242,204" fill="0" id="25409097" layer="-3.00" shape="82.03,26.06 188.78,16.67" type="farm"/>
   <poly color="140,196,107" fill="0" id="25409097#1" layer="-4.00" shape="82.03,26.06 188.78,16.67" type="natural"/>
   <poly color="207,245,201" fill="1" id="261965808" layer="-2.00" shape="592.59,321.44 619.02,306.58 612.33,294.73 585.89,309.60 592.59,321.44" type="leisure"/>
   <poly color="79,230,125" fill="1" id="261965808#1" layer="-2.00" shape="592.59,321.44 619.02,306.58 612.33,294.73 585.89,309.60 592.59,321.44" type="sport"/>
   <poly color="red" fill="1" id="262048243" layer="-1.00" shape="799.85,345.53" type="building"/>
   <poly color="207,245,201" fill="1" id="262676494" layer="-2.00" shape="348.30,383.01 363.37,374.37 359.02,366.81 343.95,375.44 348.30,383.01" type="leisure"/>
   <poly color="79,230,125" fill="1" id="262676494#1" layer="-2.00" shape="348.30,383.01 363.37,374.37 359.02,366.81 343.95,375.44 348.30,383.01" type="sport"/>
   <poly color="207,245,201" fill="1" id="262751511" layer="-2.00" shape="221.82,147.21 260.28,125.79 249.31,106.20 210.85,127.61 221.82,147.21" type="leisure"/>
   <poly color="79,230,125" fill="1" id="262751511#1" layer="-2.00" shape="221.82,147.21 260.28,125.79 249.31,106.20 210.85,127.61 221.82,147.21" type="sport"/>
   <poly color="red" fill="1" id="26458211" layer="-1.00" shape="632.27,696.80 642.98,690.78 645.81,695.78 648.19,694.44 651.35,700.04 648.80,701.48 657.32,716.58 659.76,715.21 662.82,720.63 660.53,721.92 669.28,737.42 671.70,736.05 674.89,741.70 672.57,743.00 632.27,696.80" type="building"/>
   <poly color="red" fill="1" id="26458212" layer="-1.00" shape="502.29,742.48" type="building"/>
   <poly color="red" fill="1" id="26458313" layer="-1.00" shape="484.97,737.69" type="building"/>
   <poly color="red" fill="1" id="26458383" layer="-1.00" shape="302.29,745.97" type="building"/>
   <poly color="red" fill="1" id="26458390" layer="-1.00" shape="336.46,727.24 345.01,722.51 430.29,675.37 442.01,668.90 434.11,654.68 328.58,713.02 336.46,727.24" type="building"/>
   <poly color="red" fill="1" id="28684611" layer="-1.00" shape="264.52,433.08 257.27,419.87 238.87,431.26 175.65,413.19 170.12,427.81 242.09,446.88 264.52,433.08" type="building"/>
   <poly color="red" fill="1" id="28684633" layer="-1.00" shape="165.34,424.68 167.47,414.77 141.15,407.75 76.10,443.87 82.72,454.76 141.38,419.35 165.34,424.68" type="building"/>
   <poly color="red" fill="1" id="28684644" layer="-1.00" shape="106.56,390.04 119.11,377.02 95.84,377.48 62.21,383.96 36.85,396.07 38.10,400.68 106.56,390.04" type="building"/>
   <poly color="red" fill="1" id="28684655" layer="-1.00" shape="188.62,299.50 174.12,308.20 184.17,324.85 198.80,349.10 213.30,340.39 188.62,299.50" type="building"/>
   <poly color="red" fill="1" id="28684675" layer="-1.00" shape="136.85,328.22 123.90,335.44 147.72,377.93 160.67,370.71 136.85,328.22" type="building"/>
   <poly color="red" fill="1" id="28684732" layer="-1.00" shape="295.62,283.64 287.72,269.57 233.73,299.69 237.34,306.14 242.70,315.69 264.57,354.69 271.63,367.28 363.28,316.14 335.96,267.42 323.42,274.42 343.84,310.86 275.39,349.06 252.28,307.83 295.62,283.64" type="building"/>
   <poly color="red" fill="1" id="28684739" layer="-1.00" shape="275.06,244.65 245.09,191.95 247.87,190.36 246.54,188.01 251.29,185.31 252.57,187.58 274.00,175.39 273.23,174.04 278.22,171.20 278.91,172.42 311.35,153.96 310.62,152.67 315.33,150.00 316.00,151.16 326.70,145.07 328.18,147.69 330.50,146.37 331.96,148.93 333.48,151.62 331.33,152.84 358.53,200.67 359.66,200.03 362.45,204.93 361.29,205.59 367.30,216.16 364.54,217.74 365.90,220.13 360.67,223.11 359.49,221.01 333.30,235.91 339.56,246.91 350.60,240.63 349.85,239.31 354.39,236.72 355.14,238.04 366.18,231.77 365.48,230.53 370.29,227.80 370.98,229.01 382.12,222.68 375.98,211.87 378.61,210.37 351.37,162.48 350.51,162.96 347.35,157.41 348.40,156.81 342.60,146.61 341.49,147.23 339.87,144.38 338.28,141.56 339.30,140.99 333.31,130.45 322.25,136.74 320.73,134.08 312.39,138.82 252.10,173.11 236.48,181.91 230.38,185.47 236.58,196.39 233.79,197.97 239.74,208.44 242.81,213.82 254.87,235.02 256.37,234.17 259.15,239.05 257.86,239.77 260.89,245.23 264.16,250.85 275.06,244.65" type="building"/>
   <poly color="red" fill="0" id="28685497" layer="-1.00" shape="738.69,272.80 735.25,284.69 800.27,302.70" type="building"/>
   <poly color="red" fill="1" id="28685517" layer="-1.00" shape="727.80,277.54 708.71,272.60 672.25,212.73 661.56,219.26 695.57,279.88 706.10,286.37 723.74,290.80 727.80,277.54" type="building"/>
   <poly color="red" fill="1" id="28685884" layer="-1.00" shape="504.95,148.20 495.94,132.12 448.43,158.65 457.45,174.72 504.95,148.20" type="building"/>
   <poly color="237,199,199" fill="1" id="28685887" layer="-1.00" shape="550.43,30.83 476.93,71.01 471.09,60.38 404.55,98.07 459.92,190.69 608.66,104.33 594.59,79.31 580.76,86.56 550.43,30.83" type="amenity"/>
   <poly color="red" fill="1" id="28685926" layer="-1.00" shape="459.74,129.20 444.28,101.09 423.43,112.48 438.89,140.60 459.74,129.20" type="building"/>
   <poly color="red" fill="1" id="28761823" layer="-1.00" shape="796.15,111.78" type="building"/>
   <poly color="red" fill="1" id="28761841" layer="-1.00" shape="611.00,98.76 615.29,95.64 616.04,98.01 632.38,89.05 628.47,81.95 624.84,83.41 620.39,81.18 615.11,80.37 610.11,81.13 604.45,84.48 611.00,98.76" type="building"/>
   <poly color="207,245,201" fill="1" id="28762150" layer="-2.00" shape="623.82,309.39 612.69,289.70 592.95,300.81 578.37,275.02 523.54,305.88 538.63,332.55 549.26,351.35 623.82,309.39" type="leisure"/>
   <poly color="184,184,179" fill="1" id="28762194" layer="-1.00" shape="228.45,362.04 177.25,392.32 228.61,408.04 249.07,397.97 228.45,362.04" type="parking"/>
   <poly color="194,194,130" fill="1" id="28762429" layer="-3.00" shape="623.82,309.39 649.97,295.75 795.68,336.42 694.06,288.50 653.77,222.53 530.94,289.68 399.73,364.27 243.13,449.80 146.10,427.93 131.12,435.77 176.84,510.92 121.72,548.59 147.14,598.00 167.47,537.22 423.71,399.78 538.63,332.55 549.26,351.35 623.82,309.39" type="landuse"/>
   <poly color="red" fill="1" id="29064525" layer="-1.00" shape="214.17,679.09 223.94,673.41 220.89,667.98 219.83,668.62 217.08,664.04 218.25,663.02 209.05,646.79 207.72,647.51 204.83,642.58 206.07,641.78 197.15,625.90 195.79,626.38 193.02,621.92 194.28,621.05 187.57,609.92 188.85,609.56 180.03,593.87 178.77,593.88 178.40,590.48 179.44,590.47 184.42,572.83 185.34,573.01 190.20,555.69 189.20,554.78 191.11,551.96 192.15,552.51 208.17,543.80 202.31,533.07 186.13,541.81 186.48,543.47 182.21,546.52 179.64,552.20 178.56,552.22 167.22,587.42 168.84,588.00 168.05,593.70 170.03,598.97 168.44,599.95 177.80,615.45 177.23,616.45 185.94,632.33 187.18,631.78 189.93,636.51 188.76,637.58 198.00,653.05 199.11,652.44 201.71,657.52 200.69,658.46 210.02,674.38 211.31,673.66 214.17,679.09" type="building"/>
   <poly color="red" fill="1" id="29064526" layer="-1.00" shape="214.52,533.35 300.12,489.80 293.57,476.98 207.97,520.52 214.52,533.35" type="building"/>
   <poly color="red" fill="1" id="29064527" layer="-1.00" shape="346.33,641.15 392.87,616.86 383.46,598.93 336.92,623.20 346.33,641.15" type="building"/>
   <poly color="red" fill="1" id="29064528" layer="-1.00" shape="426.61,633.05 440.37,656.74 450.91,650.64 437.14,626.96 426.61,633.05" type="building"/>
   <poly color="red" fill="1" id="29064529" layer="-1.00" shape="303.54,701.16 315.24,720.89 328.58,713.02 316.88,693.30 303.54,701.16" type="building"/>
   <poly color="237,199,199" fill="1" id="29064530" layer="-1.00" shape="230.11,574.53 255.33,618.17 278.56,656.48 290.44,677.51 398.66,616.79 384.98,592.68 350.24,583.14 345.18,585.39 310.77,529.10 230.11,574.53" type="amenity"/>
   <poly color="207,245,201" fill="1" id="29064531" layer="-2.00" shape="308.42,576.25 324.13,603.97 346.01,591.59 330.31,563.85 308.42,576.25" type="leisure"/>
   <poly color="79,230,125" fill="1" id="29064531#1" layer="-2.00" shape="308.42,576.25 324.13,603.97 346.01,591.59 330.31,563.85 308.42,576.25" type="sport"/>
   <poly color="184,184,179" fill="1" id="29064669" layer="-1.00" shape="464.17,579.96 479.14,607.97 523.45,584.40 508.48,556.39 464.17,579.96" type="parking"/>
   <poly color="red" fill="1" id="300487386" layer="-1.00" shape="278.28,115.36 288.54,109.66 278.70,92.05 268.44,97.75 278.28,115.36" type="building"/>
   <poly color="red" fill="1" id="300487389" layer="-1.00" shape="649.22,311.74 655.71,313.32 657.77,304.91 651.27,303.33 649.22,311.74" type="building"/>
   <poly color="red" fill="1" id="300487398" layer="-1.00" shape="296.65,99.14 299.71,104.87 313.35,97.62 310.29,91.88 296.65,99.14" type="building"/>
   <poly color="red" fill="1" id="300487419" layer="-1.00" shape="391.45,314.62 402.31,308.93 393.84,292.84 382.98,298.53 391.45,314.62" type="building"/>
   <poly color="red" fill="1" id="300487429" layer="-1.00" shape="374.26,291.14 384.87,285.40 376.26,269.59 365.65,275.34 374.26,291.14" type="building"/>
   <poly color="237,199,199" fill="1" id="310021026" layer="-1.00" shape="572.19,630.68 626.18,602.29 624.97,600.08 588.70,533.71 587.44,534.39 534.70,563.21 567.16,621.64 572.19,630.68" type="amenity"/>
   <poly color="140,196,107" fill="1" id="353002503" layer="-4.00" shape="777.56,3.37 780.81,8.31 785.60,12.17 792.71,13.10 790.86,-3.44 787.30,-3.90 781.28,-0.34 777.56,3.37" type="natural"/>
   <poly color="140,196,107" fill="1" id="353002506" layer="-4.00" shape="736.16,8.93 739.40,17.59 745.89,22.36 751.30,25.15 758.72,23.76 767.06,18.35 770.61,13.88 769.53,10.32 767.99,8.47 759.18,5.38 753.77,4.14 750.22,5.07 744.81,7.08 736.16,8.93" type="natural"/>
   <poly color="140,196,107" fill="1" id="353002509" layer="-4.00" shape="756.40,31.48 755.78,38.90 747.91,51.11 744.19,54.04 741.10,54.82 738.79,53.88 736.62,51.11 735.39,46.63 736.47,43.54 741.72,38.90 739.71,35.35 740.33,31.94 745.28,29.63 750.22,29.63 756.40,31.48" type="natural"/>
   <poly color="red" fill="1" id="353078393" layer="-1.00" shape="77.25,753.47" type="building"/>
   <poly color="red" fill="0" id="353078394" layer="-1.00" shape="61.69,747.76 151.72,697.53 152.85,699.56 157.84,708.51 77.25,753.47" type="building"/>
   <poly color="red" fill="0" id="353079077" layer="-1.00" shape="3.85,539.31 10.07,550.38" type="building"/>
   <poly color="red" fill="1" id="353079078" layer="-1.00" shape="45.05,698.22 81.32,677.81 87.54,688.88 51.30,709.27 49.77,706.68 45.05,698.22" type="building"/>
   <poly color="red" fill="0" id="353079080" layer="-1.00" shape="-3.93,421.36 -2.80,423.38 2.19,432.33" type="building"/>
   <poly color="red" fill="0" id="353079081" layer="-1.00" shape="73.54,559.86 74.67,561.88 79.67,570.83 -0.93,615.79" type="building"/>
   <poly color="red" fill="1" id="353079083" layer="-1.00" shape="-0.93,615.79 45.05,698.22 49.77,706.68 37.50,713.54 -0.93,615.79" type="building"/>
   <poly color="red" fill="1" id="353079084" layer="-1.00" shape="124.88,651.88 79.67,570.83 74.67,561.88 85.98,555.58 136.18,645.57 134.23,646.65 124.88,651.88" type="building"/>
   <poly color="red" fill="1" id="353079086" layer="-1.00" shape="47.41,513.38 2.19,432.33 -2.80,423.38 8.51,417.08 58.71,507.07 56.76,508.15 47.41,513.38" type="building"/>
   <poly color="red" fill="1" id="363326056" layer="-1.00" shape="498.35,612.05 493.72,603.32 500.09,599.86 504.65,608.49 498.35,612.05" type="building"/>
   <poly color="242,242,204" fill="1" id="363326063" layer="-3.00" shape="551.99,572.72 566.11,597.61 591.98,583.76 577.86,559.43 551.99,572.72" type="farm"/>
   <poly color="242,242,204" fill="1" id="366206421" layer="-3.00" shape="744.07,92.68 720.82,52.19 712.67,56.47 700.03,34.79 629.26,75.68 640.37,96.83 617.52,110.02 643.45,138.24 650.54,146.35 744.07,92.68" type="farm"/>
   <poly color="207,245,201" fill="1" id="366206846" layer="-2.00" shape="310.19,648.57 306.91,659.67 303.21,664.95 297.51,665.94 293.52,664.94 290.39,662.10 289.82,658.68 291.25,653.97 295.80,649.28 302.07,648.00 310.19,648.57" type="leisure"/>
   <poly color="207,245,201" fill="1" id="366206848" layer="-2.00" shape="306.42,304.38 317.69,297.87 309.58,283.80 298.31,290.31 306.42,304.38" type="leisure"/>
   <poly color="140,196,107" fill="1" id="366206848#1" layer="-4.00" shape="306.42,304.38 317.69,297.87 309.58,283.80 298.31,290.31 306.42,304.38" type="natural"/>
   <poly color="207,245,201" fill="0" id="36947375" layer="-2.00" shape="791.55,-6.79 760.22,-14.51 734.99,6.68 725.24,17.73 719.49,28.74 741.99,62.87" type="leisure"/>
   <poly color="194,194,130" fill="1" id="36947376" layer="-3.00" shape="577.47,37.59 597.97,79.05 617.52,110.02 640.37,96.83 629.26,75.68 700.03,34.79 675.92,-7.59 577.47,37.59" type="landuse"/>
   <poly color="140,196,107" fill="1" id="36947377" layer="-4.00" shape="594.59,79.31 554.83,10.01 352.05,-6.23 389.98,69.13 404.55,98.07 471.09,60.38 476.93,71.01 550.43,30.83 580.76,86.56 594.59,79.31" type="natural"/>
   <poly color="140,196,107" fill="1" id="36947378" layer="-4.00" shape="578.83,18.33 590.24,10.08 578.83,18.33" type="natural"/>
   <poly color="red" fill="1" id="385627956" layer="-1.00" shape="692.45,439.90 698.88,450.93 750.72,420.85 744.29,409.82 692.45,439.90" type="building"/>
   <poly color="red" fill="1" id="420607940" layer="-1.00" shape="-11.40,368.10" type="building"/>
   <poly color="194,194,130" fill="1" id="438748296" layer="-3.00" shape="219.81,153.36 291.43,112.75 260.52,58.22 279.02,47.74 265.80,24.42 175.68,75.52 219.81,153.36" type="landuse"/>
   <poly color="237,199,199" fill="1" id="438748336" layer="-1.00" shape="126.98,223.25 50.68,264.75 86.33,330.29 162.62,288.80 126.98,223.25" type="amenity"/>
   <poly color="194,194,130" fill="1" id="439375724" layer="-3.00" shape="15.29,368.01 43.40,262.96 81.12,330.78 15.29,368.01" type="landuse"/>
   <poly color="red" fill="1" id="78076514" layer="-1.00" shape="420.97,175.65 427.48,187.43 440.78,180.10 433.97,167.82 420.97,175.65" type="building"/>
   <poly color="red" fill="1" id="78076516" layer="-1.00" shape="575.02,537.24 569.79,528.32 558.16,535.09 563.39,544.01 575.02,537.24" type="building"/>
   <poi color="237,199,199" id="1005959581" layer="4.00" type="amenity" x="757.94" y="93.52"/>
   <poi color="237,199,199" id="1005959589" layer="4.00" type="amenity" x="203.97" y="185.76"/>
   <poi color="237,199,199" id="1005966025" layer="4.00" type="amenity" x="426.77" y="582.66"/>
   <poi color="237,199,255" id="1362016421" layer="4.00" type="shop" x="420.47" y="333.10"/>
   <poi color="237,199,199" id="1362021360" layer="4.00" type="amenity" x="398.04" y="363.44"/>
   <poi color="237,199,199" id="1362032370" layer="4.00" type="amenity" x="326.84" y="527.25"/>
   <poi color="237,199,199" id="1413338645" layer="4.00" type="amenity" x="301.21" y="100.93"/>
   <poi color="184,184,179" id="1689032495" layer="4.00" type="parking" x="279.55" y="131.00"/>
   <poi color="237,199,199" id="1689034104" layer="4.00" type="amenity" x="349.56" y="114.00"/>
   <poi color="237,199,199" id="1689040145" layer="4.00" type="amenity" x="405.27" y="242.38"/>
   <poi color="237,199,199" id="1689050894" layer="4.00" type="amenity" x="400.33" y="366.98"/>
   <poi color="237,199,199" id="1689054439" layer="4.00" type="amenity" x="519.88" y="298.38"/>
   <poi color="237,199,199" id="1689057620" layer="4.00" type="amenity" x="640.47" y="239.17"/>
   <poi color="184,184,179" id="1689060481" layer="4.00" type="parking" x="590.34" y="191.27"/>
   <poi color="207,245,201" id="1689068095" layer="3.00" type="tourism" x="594.91" y="597.57"/>
   <poi color="184,184,179" id="1689072551" layer="4.00" type="parking" x="603.82" y="655.97"/>
   <poi color="237,199,199" id="1689079227" layer="4.00" type="amenity" x="588.72" y="672.52"/>
   <poi color="237,199,255" id="1689085482" layer="4.00" type="shop" x="566.31" y="687.51"/>
   <poi color="237,199,199" id="1689323239" layer="4.00" type="amenity" x="553.89" y="693.31"/>
   <poi color="207,245,201" id="1689327271" layer="3.00" type="tourism" x="475.82" y="684.84"/>
   <poi color="237,199,199" id="1689335355" layer="4.00" type="amenity" x="278.73" y="747.22"/>
   <poi color="237,199,255" id="1825732474" layer="4.00" type="shop" x="652.46" y="307.39"/>
   <poi color="237,199,255" id="1825736482" layer="4.00" type="shop" x="353.50" y="456.43"/>
   <poi color="207,245,201" id="1825737149" layer="3.00" type="tourism" x="363.99" y="449.08"/>
   <poi color="128,255,128" id="1825738374" layer="4.00" type="historic" x="384.09" y="403.04"/>
   <poi color="237,199,199" id="258888571" layer="4.00" type="amenity" x="447.01" y="312.24"/>
   <poi color="184,184,179" id="2683432311" layer="4.00" type="parking" x="381.76" y="267.02"/>
   <poi color="237,199,199" id="268917266" layer="4.00" type="amenity" x="695.65" y="360.33"/>
   <poi color="237,199,199" id="268917701" layer="4.00" type="amenity" x="730.18" y="370.10"/>
   <poi color="237,199,199" id="2856612771" layer="4.00" type="amenity" x="698.92" y="579.83"/>
   <poi color="207,245,201" id="2856612774" layer="3.00" type="tourism" x="469.80" y="672.55"/>
   <poi color="237,199,199" id="287852225" layer="4.00" type="amenity" x="526.34" y="626.74"/>
   <poi color="237,199,255" id="287852760" layer="4.00" type="shop" x="515.12" y="643.53"/>
   <poi color="237,199,255" id="304371509" layer="4.00" type="shop" x="253.94" y="737.69"/>
   <poi color="237,199,255" id="3153758594" layer="4.00" type="shop" x="235.85" y="749.16"/>
   <poi color="237,199,199" id="3153767345" layer="4.00" type="amenity" x="708.50" y="225.52"/>
   <poi color="237,199,255" id="3987051089" layer="4.00" type="shop" x="441.29" y="368.26"/>
   <poi color="237,199,255" id="3987051090" layer="4.00" type="shop" x="475.01" y="362.69"/>
</additional>