<?xml version="1.0" encoding="utf-8"?><!-- generated on 10/11/17 17:50:39 by SUMO polyconvert Version 0.25.0
<?xml version="1.0" encoding="UTF-8"?>

<configuration xmlns:xsi="http://www.w3.org/2001/XMLSchema-instance" xsi:noNamespaceSchemaLocation="http://sumo.dlr.de/xsd/polyconvertConfiguration.xsd">

    <input>
        <net-file value="B_SiemensStd_urban_800.net.xml"/>
        <osm-files value="B_SiemensStd_urban_800.osm"/>
        <type-file value="osmPolyconvert.typ.xml"/>
    </input>

    <output>
        <output-file value="B_SiemensStd_urban_800.poly.xml"/>
    </output>

    <projection>
        <proj.utm value="true"/>
    </projection>

    <processing>
        <poi-layer-offset value="5"/>
    </processing>

</configuration>
-->
<additional>
   <location convBoundary="-2.22,-2.42,823.67,767.82" netOffset="-382981.97,-5821830.18" origBoundary="13.274700,52.534100,13.286699,52.540892" projParameter="+proj=utm +zone=33 +ellps=WGS84 +datum=WGS84 +units=m +no_defs"/>
   <poly color="140,196,107" fill="0" id="110899501" layer="-4.00" shape="540.18,10.45 584.00,-0.53" type="natural"/>
   <poly color="red" fill="0" id="121034420" layer="-1.00" shape="15.11,704.42 17.50,713.60 30.29,710.29 27.91,701.12 37.32,698.69 39.75,708.03 52.77,704.66 50.35,695.34 60.03,692.84 62.50,702.35 75.69,698.94 72.09,685.09 59.68,688.31 57.40,679.52 45.43,682.63 47.71,691.37 38.08,693.86 35.81,685.14 23.08,688.42 25.35,697.14 15.79,699.60 13.53,690.92" type="building"/>
   <poly color="237,199,199" fill="1" id="121034430" layer="-1.00" shape="81.15,657.90" type="amenity"/>
   <poly color="red" fill="1" id="121034431" layer="-1.00" shape="60.20,751.68 74.30,748.06 73.15,743.58 78.20,742.28 71.06,714.47 51.92,719.38 60.20,751.68" type="building"/>
   <poly color="red" fill="1" id="13867707" layer="-1.00" shape="765.27,31.93 775.18,31.83 776.88,38.30 775.79,38.68 774.66,39.12 776.24,54.59 777.57,64.32 776.43,64.78 775.17,65.26 777.00,80.24 778.17,90.77 776.01,91.61 776.23,93.70 776.80,98.93 767.38,99.93 765.79,85.86 765.45,81.93 767.87,81.68 765.09,60.57 765.23,58.18 766.08,58.07 765.81,55.98 766.88,55.84 764.13,34.00 764.03,31.94 765.27,31.93" type="building"/>
   <poly color="red" fill="1" id="13867709" layer="-1.00" shape="483.43,398.28 483.76,388.12 487.97,388.24 487.93,388.94 490.36,389.02 490.39,388.33 492.72,388.39 492.69,389.10 494.75,389.16 494.78,388.46 501.31,388.67 501.28,389.36 503.89,389.44 503.92,388.75 506.30,388.82 506.27,389.52 508.58,389.59 508.61,388.90 515.39,389.10 515.37,389.80 517.75,389.88 517.78,389.18 520.30,389.26 520.28,389.95 522.68,390.03 522.71,389.34 528.99,389.53 528.96,390.23 531.40,390.30 531.43,389.61 533.56,389.68 533.53,390.37 536.30,390.46 536.33,389.76 538.89,389.84 538.57,400.00 483.43,398.28" type="building"/>
   <poly color="red" fill="1" id="13867710" layer="-1.00" shape="485.38,362.23 484.63,351.74 489.35,350.74 489.43,351.88 492.56,351.66 492.51,351.02 497.12,350.19 497.21,351.33 500.28,351.10 500.22,350.47 505.00,349.61 505.09,350.75 508.50,350.52 508.45,349.87 512.99,349.04 513.08,350.19 516.35,349.95 516.30,349.31 521.08,348.45 521.17,349.60 524.31,349.37 524.23,348.54 528.95,347.69 529.07,349.03 531.90,348.82 531.85,348.18 532.56,348.13 533.32,358.77 485.38,362.23" type="building"/>
   <poly color="red" fill="1" id="13867711" layer="-1.00" shape="476.69,327.57 475.24,317.67 481.35,316.78 481.45,317.40 483.89,317.05 483.80,316.42 486.52,316.02 486.62,316.65 488.98,316.31 488.89,315.67 494.50,314.85 494.60,315.48 497.12,315.11 497.03,314.49 499.70,314.09 499.80,314.72 502.45,314.34 502.35,313.71 508.62,312.79 508.71,313.42 510.93,313.09 510.83,312.47 513.35,312.10 513.44,312.73 515.87,312.37 515.78,311.75 521.87,310.86 521.97,311.48 524.43,311.12 524.34,310.50 527.09,310.09 527.19,310.72 529.16,310.43 529.07,309.81 529.54,309.73 530.20,314.30 530.97,314.19 531.75,319.53 476.69,327.57" type="building"/>
   <poly color="red" fill="1" id="13867712" layer="-1.00" shape="448.44,388.65 445.38,388.83 445.14,385.14 448.45,384.84 448.48,373.96 448.00,373.95 448.92,369.31 448.09,369.25 449.25,363.57 449.50,357.59 448.12,354.35 448.43,354.05 451.01,355.03 450.11,349.93 452.90,349.98 452.92,349.20 460.58,349.37 460.32,361.77 459.97,378.76 459.75,388.89 448.44,388.65" type="building"/>
   <poly color="red" fill="1" id="13867713" layer="-1.00" shape="559.89,437.98 559.84,428.64 561.23,428.63 561.20,421.34 559.80,421.34 559.75,412.91 561.14,412.91 561.13,409.59 559.74,409.60 559.72,405.42 561.10,405.41 561.07,397.92 559.67,397.93 559.65,393.85 561.04,393.84 561.02,390.20 559.63,390.20 559.59,382.35 560.98,382.34 560.96,378.68 559.56,378.69 559.56,376.57 570.45,376.51 570.49,384.53 571.79,384.51 571.80,387.27 570.51,387.27 570.55,395.70 571.85,395.70 571.86,398.90 570.58,398.89 570.66,414.87 571.95,414.86 571.96,417.67 570.68,417.68 570.72,426.69 572.02,426.69 572.03,429.43 570.74,429.43 570.78,437.92 559.89,437.98" type="building"/>
   <poly color="red" fill="1" id="13867714" layer="-1.00" shape="629.68,401.16 629.80,401.61 625.35,402.81 625.23,402.36 618.01,404.29 618.14,404.74 613.14,406.07 613.01,405.62 609.58,406.55 607.06,397.11 613.32,395.44 613.64,396.67 616.17,396.00 615.84,394.77 619.43,393.80 619.76,395.03 622.12,394.40 621.79,393.17 625.08,392.29 625.41,393.52 628.05,392.82 627.71,391.59 631.13,390.68 631.47,391.90 633.95,391.23 633.62,390.01 636.85,389.14 637.18,390.37 640.19,389.57 639.86,388.34 643.11,387.48 643.43,388.69 646.13,387.97 645.80,386.74 648.77,385.95 649.10,387.18 651.75,386.47 651.42,385.24 654.52,384.42 654.85,385.65 657.61,384.91 657.28,383.68 666.23,381.28 668.74,390.72 665.05,391.71 665.17,392.16 660.39,393.44 660.27,392.99 653.22,394.87 653.35,395.32 648.43,396.64 648.30,396.19 641.62,397.97 641.74,398.43 637.13,399.66 637.01,399.21 629.68,401.16" type="building"/>
   <poly color="red" fill="1" id="13867715" layer="-1.00" shape="626.66,365.11 626.83,365.54 622.02,367.50 621.83,367.08 615.36,369.72 615.53,370.15 610.60,372.16 610.43,371.73 607.01,373.11 603.39,364.23 609.13,361.89 609.51,362.82 612.13,361.76 611.75,360.82 615.02,359.49 615.40,360.43 617.63,359.52 617.25,358.58 620.64,357.20 621.03,358.13 623.43,357.16 623.05,356.22 626.39,354.86 626.77,355.79 629.29,354.78 628.91,353.83 632.06,352.55 632.44,353.49 634.86,352.51 634.48,351.57 637.85,350.19 638.23,351.14 640.59,350.17 640.21,349.23 643.41,347.93 643.80,348.87 646.06,347.95 645.68,347.01 649.17,345.58 649.56,346.52 651.94,345.56 651.55,344.61 660.23,341.08 663.85,349.97 660.40,351.38 660.57,351.81 656.09,353.64 655.92,353.21 649.25,355.91 649.42,356.34 644.62,358.31 644.44,357.88 637.88,360.55 638.05,360.98 633.45,362.86 633.27,362.43 626.66,365.11" type="building"/>
   <poly color="red" fill="1" id="13867716" layer="-1.00" shape="622.66,327.85 622.96,328.35 618.53,331.01 618.23,330.50 612.02,334.20 612.32,334.71 607.76,337.44 607.47,336.92 604.68,338.59 599.81,330.45 605.13,327.27 605.68,328.20 608.09,326.76 607.54,325.84 610.50,324.06 611.06,324.99 613.25,323.68 612.70,322.75 615.56,321.04 616.12,321.96 618.36,320.63 617.81,319.69 620.97,317.82 621.52,318.74 623.83,317.36 623.28,316.43 626.27,314.64 626.82,315.56 629.12,314.20 628.57,313.27 631.53,311.50 632.09,312.42 634.43,311.02 633.88,310.10 636.72,308.41 637.27,309.33 639.50,307.99 638.95,307.07 641.99,305.25 642.54,306.18 644.76,304.85 644.21,303.93 652.21,299.15 657.07,307.29 653.99,309.13 654.30,309.63 650.24,312.06 649.94,311.55 643.42,315.45 643.72,315.95 639.37,318.55 639.07,318.04 632.84,321.76 633.14,322.27 628.99,324.76 628.68,324.25 622.66,327.85" type="building"/>
   <poly color="red" fill="1" id="13867717" layer="-1.00" shape="443.08,548.09 443.11,547.12 441.58,546.97 441.64,544.45 443.17,544.56 445.09,467.91 443.59,467.77 443.65,465.33 445.15,465.38 445.18,464.13 454.88,464.43 454.64,474.62 456.20,474.70 455.84,488.13 454.36,488.13 454.24,494.35 455.73,494.47 455.46,504.72 454.00,504.67 453.84,511.02 455.32,511.10 455.11,521.22 453.67,521.16 453.44,527.74 454.97,527.87 454.76,538.14 453.15,538.04 452.83,548.38 443.08,548.09" type="building"/>
   <poly color="red" fill="1" id="13867718" layer="-1.00" shape="467.97,475.33 468.12,465.54 469.30,465.57 469.31,465.30 469.35,465.05 469.44,464.81 469.57,464.60 469.74,464.40 469.94,464.24 470.17,464.14 470.42,464.06 470.67,464.05 470.92,464.09 471.17,464.16 471.39,464.29 471.58,464.45 471.74,464.66 471.86,464.88 471.94,465.12 471.96,465.37 471.93,465.63 478.36,465.79 478.37,464.21 492.05,464.54 492.00,466.11 498.53,466.27 498.56,466.02 498.62,465.79 498.72,465.57 498.86,465.37 499.04,465.21 499.24,465.08 499.46,465.00 499.70,464.96 499.94,464.96 500.17,465.01 500.39,465.11 500.59,465.25 500.75,465.42 500.89,465.62 500.98,465.85 501.02,466.08 501.01,466.33 502.22,466.36 501.87,476.28 467.97,475.33" type="building"/>
   <poly color="red" fill="1" id="13867719" layer="-1.00" shape="421.53,546.16 422.16,556.23 388.22,558.38 387.59,548.31 421.53,546.16" type="building"/>
   <poly color="red" fill="1" id="13867720" layer="-1.00" shape="515.68,533.47 515.46,523.23 514.03,523.15 513.92,513.24 515.29,513.27 515.16,506.68 513.66,506.59 513.46,496.54 514.94,496.48 514.82,489.99 513.36,490.01 513.20,479.88 514.59,479.82 514.70,466.16 524.65,466.20 524.65,467.14 526.15,467.19 526.17,469.73 524.67,469.76 524.88,500.77 525.43,529.65 527.22,529.75 527.23,532.09 525.54,532.17 525.54,533.38 515.68,533.47" type="building"/>
   <poly color="red" fill="1" id="13867721" layer="-1.00" shape="476.94,432.32 478.45,421.08 483.01,421.70 482.84,422.97 485.97,423.40 486.10,422.49 490.37,422.57 490.19,423.97 493.49,424.41 493.62,423.51 498.10,423.60 497.91,425.01 501.03,425.42 501.15,424.52 505.81,424.64 505.63,426.05 508.55,426.43 508.68,425.71 513.53,425.86 513.35,427.09 516.34,427.48 516.46,426.58 520.98,426.68 520.79,428.08 523.88,428.49 524.00,427.59 528.50,427.69 528.31,429.09 531.29,429.50 531.42,428.59 536.33,428.74 536.14,430.15 539.27,430.58 539.40,429.67 539.84,429.72 538.39,440.59 476.94,432.32" type="building"/>
   <poly color="red" fill="1" id="13867819" layer="-1.00" shape="346.39,554.83 356.16,553.62 366.08,622.05 355.58,623.57 353.69,609.47 352.26,598.73 350.68,586.94 349.14,575.45 347.63,564.13 346.39,554.83" type="building"/>
   <poly color="red" fill="1" id="13867820" layer="-1.00" shape="372.26,759.40 382.87,757.71 361.39,622.95 350.79,624.64 352.14,633.12 354.49,647.86 356.79,662.31 359.17,677.25 361.52,691.94 363.79,706.21 366.18,721.27 368.39,735.09 370.88,750.76 372.26,759.40" type="building"/>
   <poly color="red" fill="1" id="13867821" layer="-1.00" shape="408.58,575.59 418.51,574.10 433.70,688.71 423.14,690.18 408.58,575.59" type="building"/>
   <poly color="red" fill="1" id="13867822" layer="-1.00" shape="417.56,695.25 428.57,693.55 437.86,743.23 426.73,745.72 417.56,695.25" type="building"/>
   <poly color="red" fill="1" id="13867823" layer="-1.00" shape="459.08,691.53 469.50,689.77 477.85,739.05 467.44,740.81 459.08,691.53" type="building"/>
   <poly color="red" fill="1" id="13867824" layer="-1.00" shape="468.25,657.00 463.05,623.20 460.95,607.19 458.53,590.56 454.84,558.83 454.29,558.78 453.26,558.21 453.29,557.26 453.97,556.46 454.53,556.33 454.44,555.40 464.62,554.36 465.82,564.30 466.87,564.29 468.32,577.60 466.77,577.86 467.55,583.92 468.77,583.80 470.13,593.88 468.70,594.02 469.62,600.44 470.95,600.37 472.41,610.54 470.88,610.71 471.87,616.94 473.35,616.80 474.86,626.63 473.41,626.89 474.48,633.27 475.90,633.07 477.43,643.49 475.92,643.71 476.83,649.64 478.25,649.44 479.93,659.79 478.45,660.09 479.44,666.08 481.12,665.86 482.99,675.81 481.69,676.11 483.54,686.45 473.56,688.34 473.36,687.17 472.84,687.31 472.13,686.87 471.82,685.12 472.26,684.59 472.93,684.51 471.02,672.93 468.25,657.00" type="building"/>
   <poly color="red" fill="1" id="13867825" layer="-1.00" shape="491.96,726.55 525.19,719.01 527.38,728.65 494.15,736.20 491.96,726.55" type="building"/>
   <poly color="red" fill="1" id="13867826" layer="-1.00" shape="525.35,627.99 523.87,628.06 521.92,615.12 523.37,614.86 522.50,608.15 521.15,608.30 519.83,598.13 521.19,598.03 520.56,591.93 519.08,592.01 518.07,581.82 519.50,581.72 518.93,574.92 517.51,574.95 516.58,564.82 518.03,564.68 517.05,554.35 527.00,553.58 527.12,554.97 527.63,555.04 527.95,555.24 528.20,555.52 528.39,556.06 528.23,556.69 527.85,557.05 527.30,557.24 529.86,585.47 531.71,603.22 533.77,619.70 535.88,633.06 536.09,633.00 536.32,632.97 536.55,632.99 536.78,633.04 537.00,633.13 537.20,633.27 537.38,633.43 537.52,633.62 537.62,633.83 537.68,634.05 537.75,634.28 537.57,635.00 537.08,635.48 536.30,635.70 536.45,636.66 526.89,638.06 525.35,627.99" type="building"/>
   <poly color="red" fill="1" id="13867827" layer="-1.00" shape="537.95,694.92 536.29,695.22 534.27,685.11 535.77,684.73 534.42,678.43 533.05,678.63 530.95,668.83 532.60,668.47 530.70,658.40 540.46,656.39 540.55,657.24 541.92,657.07 542.38,659.73 540.96,660.06 542.99,671.28 546.63,688.43 550.09,704.39 553.50,718.42 554.87,718.09 555.50,720.75 554.11,721.07 554.25,722.22 544.79,724.59 541.68,711.56 540.18,711.90 537.88,701.72 539.48,701.41 537.95,694.92" type="building"/>
   <poly color="red" fill="1" id="13867829" layer="-1.00" shape="638.49,624.99 613.40,628.77 613.74,631.03 606.23,632.16 605.94,630.23 581.61,634.22 582.38,638.85 569.33,641.04 567.26,627.97 567.96,627.87 565.55,611.06 562.62,586.70 561.98,579.67 560.63,564.78 558.75,534.54 558.67,533.24 558.47,533.24 557.90,523.10 558.39,523.05 557.82,504.09 557.52,480.29 557.24,480.28 557.17,473.81 557.10,467.21 570.07,467.07 570.11,471.54 598.11,471.23 599.57,469.67 601.74,469.66 604.01,469.65 605.53,471.64 634.21,471.56 634.20,466.67 647.40,466.63 647.44,480.27 634.25,480.31 634.25,480.12 605.59,480.20 605.59,482.63 598.75,482.64 598.73,479.92 570.07,480.21 569.82,498.98 570.24,519.60 572.57,559.03 575.09,584.21 580.29,625.67 637.24,617.07 638.49,624.99" type="building"/>
   <poly color="red" fill="1" id="13867830" layer="-1.00" shape="628.81,699.14 629.27,700.93 621.98,702.78 621.50,700.88 594.08,707.57 595.16,711.96 582.31,715.18 579.42,702.42 591.99,699.10 592.14,699.69 619.39,692.87 620.31,690.43 624.97,689.25 627.03,690.94 654.82,683.90 651.59,668.39 644.87,634.18 643.75,627.26 656.03,625.37 657.72,637.21 659.81,649.60 666.46,680.55 667.22,680.35 670.60,693.04 658.01,696.20 656.95,692.02 628.81,699.14" type="building"/>
   <poly color="red" fill="1" id="13867831" layer="-1.00" shape="707.55,661.26 704.35,661.90 694.74,614.77 704.91,612.70 706.13,618.70 706.52,618.63 707.00,620.99 706.61,621.07 712.67,650.84 713.07,650.77 713.62,653.47 713.23,653.56 714.52,659.86 707.55,661.26" type="building"/>
   <poly color="red" fill="1" id="13867832" layer="-1.00" shape="754.41,651.55 751.35,652.18 741.78,605.20 751.80,603.16 753.04,609.28 753.56,609.18 754.00,611.36 753.49,611.47 756.34,625.45 756.85,625.34 757.33,627.69 756.81,627.79 759.62,641.58 760.14,641.47 760.63,643.88 760.12,643.98 761.38,650.16 754.41,651.55" type="building"/>
   <poly color="red" fill="1" id="13867833" layer="-1.00" shape="354.28,376.06 354.23,375.42 354.91,375.37 354.72,371.63 354.06,371.68 353.52,360.65 354.19,360.60 354.03,357.39 353.37,357.41 353.33,356.72 354.00,356.67 353.83,353.20 353.16,353.22 352.44,338.38 355.82,338.22 355.77,337.20 356.33,337.18 356.37,337.66 362.62,337.35 363.14,348.00 364.00,365.95 364.45,375.14 360.55,375.33 360.59,375.74 354.28,376.06" type="building"/>
   <poly color="red" fill="1" id="13867834" layer="-1.00" shape="390.71,364.78 390.58,364.20 391.62,363.98 390.90,360.52 390.48,360.61 388.32,350.24 387.82,350.33 387.70,349.73 388.88,349.48 388.21,346.24 386.97,346.49 386.83,345.85 388.07,345.58 387.32,341.96 386.62,342.11 383.65,327.85 386.97,327.16 386.90,326.85 393.26,325.53 395.33,335.43 399.10,353.52 400.90,362.24 397.04,363.04 397.12,363.45 390.71,364.78" type="building"/>
   <poly color="red" fill="1" id="13867835" layer="-1.00" shape="421.95,357.06 421.87,356.39 423.04,356.28 422.74,352.88 421.97,352.96 421.04,342.32 420.56,342.36 420.50,341.76 421.52,341.67 421.22,338.25 420.14,338.34 420.08,337.69 421.16,337.58 420.86,334.14 420.33,334.19 419.02,319.28 422.26,319.01 422.17,318.02 422.78,317.97 422.84,318.55 429.02,318.01 429.96,328.75 431.61,347.52 432.33,355.76 428.23,356.12 428.26,356.51 421.95,357.06" type="building"/>
   <poly color="red" fill="1" id="13867894" layer="-1.00" shape="417.23,248.71 428.77,242.38 430.50,246.86 429.95,247.06 431.49,251.35 433.95,250.38 437.17,258.58 436.35,258.91 437.89,262.82 440.59,261.75 443.95,270.29 443.52,270.46 446.87,278.97 439.89,281.93 436.64,285.65 433.53,282.93 434.92,281.34 433.46,277.79 432.71,278.21 431.27,276.45 431.99,276.15 430.37,272.24 429.81,272.50 428.02,270.71 428.57,270.10 426.82,265.87 426.27,266.19 424.74,264.61 425.41,263.97 423.74,259.94 422.97,260.34 421.43,258.91 422.03,258.21 420.34,254.14 419.69,254.56 418.33,253.15 418.85,252.62 417.23,248.71" type="building"/>
   <poly color="red" fill="1" id="13867895" layer="-1.00" shape="539.44,239.04 538.18,237.53 538.68,237.27 537.21,232.95 536.42,233.22 534.88,231.54 535.10,231.08 532.04,220.11 531.10,220.13 531.11,219.31 532.11,219.28 530.76,213.77 531.91,213.49 530.80,208.26 531.87,208.03 530.87,202.79 532.08,202.56 530.67,196.92 531.82,196.62 530.61,191.27 531.83,190.98 530.69,185.61 531.85,185.36 530.55,179.66 531.74,179.38 530.48,173.93 531.52,173.69 530.38,168.73 531.67,168.43 530.35,162.73 531.68,162.38 528.10,148.82 531.23,147.99 531.16,146.86 534.52,146.68 535.04,144.79 536.84,145.28 537.13,144.20 541.02,145.26 541.95,143.45 543.42,144.20 543.94,143.18 544.77,143.60 549.59,146.06 545.21,154.63 544.77,154.41 544.14,156.08 542.32,160.91 542.40,174.23 542.41,175.35 543.85,175.37 543.84,174.10 550.05,174.09 550.08,179.61 543.85,179.63 543.86,178.42 542.43,178.41 542.64,213.59 543.13,213.59 545.39,213.58 545.42,219.64 547.96,227.08 546.93,227.42 547.68,229.63 548.58,232.29 551.17,231.41 553.84,239.27 552.90,239.59 553.43,241.12 554.26,243.56 556.71,242.73 559.74,251.62 558.92,251.91 559.52,253.68 561.52,259.55 554.49,261.94 551.13,265.08 548.68,262.43 550.13,260.76 548.89,257.10 548.09,257.37 547.00,256.08 547.43,255.62 545.92,251.20 545.47,251.35 543.88,249.56 544.54,249.10 543.02,244.64 542.10,244.96 540.89,243.39 541.49,243.19 540.01,238.85 539.44,239.04" type="building"/>
   <poly color="red" fill="1" id="13867896" layer="-1.00" shape="661.65,242.95 662.17,242.46 660.98,238.23 660.50,238.52 659.21,236.88 659.52,236.32 658.32,231.87 657.70,231.99 656.54,230.39 657.04,230.18 656.01,225.73 655.40,225.97 654.22,224.51 654.74,223.91 652.18,214.86 651.38,212.03 651.80,212.04 651.21,206.48 652.10,206.34 651.57,200.74 652.53,200.30 651.91,194.97 652.94,194.67 652.34,189.21 653.18,188.96 652.58,183.94 653.60,183.75 652.91,177.88 653.90,177.63 653.41,172.68 654.16,172.46 653.57,167.18 654.53,167.01 653.82,161.35 654.87,161.21 654.15,155.53 655.43,155.44 652.97,141.56 653.82,139.22 659.52,139.72 660.36,136.70 665.80,138.22 667.35,135.83 674.32,140.10 668.93,148.28 665.99,154.57 665.18,168.59 666.70,168.73 666.76,167.79 672.74,168.11 672.46,173.36 666.47,173.03 666.51,172.34 664.97,172.19 662.93,207.38 665.68,207.53 665.40,212.77 665.74,214.00 667.44,220.24 666.39,220.53 667.50,224.62 669.94,223.95 672.25,232.41 671.39,232.65 672.60,237.06 675.12,236.37 677.58,245.37 676.42,245.69 678.71,254.06 671.57,256.01 671.72,256.57 668.45,259.09 665.35,256.33 667.14,254.78 665.97,250.69 665.27,251.01 664.19,249.59 664.67,248.91 663.49,244.34 663.04,244.70 661.65,242.95" type="building"/>
   <poly color="red" fill="1" id="13867898" layer="-1.00" shape="566.14,350.37 565.60,350.25 563.91,357.34 564.43,357.46 563.34,362.03 562.81,361.91 561.98,365.35 552.71,363.12 554.06,357.51 555.35,357.81 556.02,355.03 554.73,354.72 555.49,351.55 556.79,351.85 557.39,349.33 556.10,349.03 556.91,345.65 558.20,345.95 558.83,343.32 557.53,343.02 558.40,339.42 559.69,339.73 560.26,337.38 558.97,337.06 559.84,333.44 561.13,333.74 561.74,331.18 560.45,330.86 561.22,327.68 562.50,327.99 563.19,325.13 561.90,324.82 562.79,321.13 564.08,321.43 564.61,319.21 563.32,318.91 564.09,315.71 565.38,316.02 566.05,313.25 564.76,312.93 566.87,304.12 576.14,306.34 575.30,309.83 575.83,309.95 574.59,315.09 574.07,314.98 572.44,321.76 572.97,321.88 571.81,326.71 571.28,326.59 569.68,333.24 570.21,333.37 568.99,338.48 568.46,338.36 566.80,345.29 567.32,345.42 566.14,350.37" type="building"/>
   <poly color="red" fill="1" id="13867899" layer="-1.00" shape="637.69,435.87 637.67,436.33 636.58,436.34 634.84,436.35 634.85,435.89 629.09,435.94 629.10,438.15 621.82,438.20 613.77,438.27 613.68,427.45 618.61,427.41 618.61,428.54 624.46,428.50 624.47,427.36 628.74,427.33 628.74,426.02 632.15,426.00 632.15,427.31 634.83,427.28 634.83,425.98 638.60,425.95 638.60,427.26 641.16,427.24 641.16,425.93 644.91,425.90 644.91,427.21 647.67,427.18 647.66,425.88 651.29,425.85 651.29,427.15 653.87,427.14 653.86,425.82 654.45,425.84 654.44,427.13 658.57,427.10 658.56,428.24 664.38,428.19 664.38,427.05 668.91,427.01 668.99,437.84 661.38,437.90 653.89,437.95 653.88,435.74 648.06,435.79 648.04,436.25 646.72,436.25 645.23,436.27 645.22,435.81 637.69,435.87" type="building"/>
   <poly color="red" fill="1" id="13867900" layer="-1.00" shape="698.13,555.57 698.18,554.70 697.60,554.66 696.33,543.98 701.54,543.35 701.69,544.66 704.71,544.30 704.55,542.99 706.20,542.81 706.36,544.11 709.52,543.73 709.37,542.42 710.62,542.28 710.78,543.59 714.19,543.19 714.03,541.88 715.54,541.70 715.69,543.00 718.75,542.64 718.59,541.33 720.39,541.12 720.55,542.42 723.46,542.07 723.31,540.78 725.08,540.57 725.24,541.87 728.25,541.52 728.09,540.21 729.54,540.04 729.69,541.34 733.00,540.95 732.84,539.65 734.19,539.48 735.49,550.46 730.49,551.04 730.34,549.81 721.27,550.88 721.39,551.87 723.64,551.61 724.25,556.78 719.52,557.34 718.91,552.18 719.45,552.11 719.33,551.12 702.53,553.11 702.75,554.99 701.06,554.88 701.00,555.76 698.13,555.57" type="building"/>
   <poly color="red" fill="1" id="13867901" layer="-1.00" shape="699.20,481.12 691.76,527.62 680.58,525.82 680.69,525.12 682.02,525.32 682.62,521.57 681.29,521.35 682.36,514.71 683.68,514.92 685.05,506.39 683.73,506.17 684.79,499.52 686.11,499.73 687.52,491.02 686.19,490.80 687.23,484.31 688.55,484.53 689.17,480.62 687.85,480.40 687.91,480.02 694.75,481.12 699.20,481.12" type="building"/>
   <poly color="red" fill="1" id="13867906" layer="-1.00" shape="796.05,589.24 789.98,591.08 786.49,592.13 782.84,580.17 792.40,577.26 794.28,583.43 796.05,589.24" type="building"/>
   <poly color="red" fill="1" id="13867907" layer="-1.00" shape="792.99,291.81 804.48,291.71 804.81,336.19 756.02,336.56 755.89,319.14 793.15,318.85 793.08,309.59 751.32,309.91 751.24,299.39 793.04,299.07 792.99,291.81" type="building"/>
   <poly color="red" fill="1" id="13868147" layer="-1.00" shape="790.15,523.63 785.18,524.61 784.56,521.98 776.34,524.25 762.00,480.63 757.75,480.67 757.74,480.10 747.01,480.20 746.97,475.73 748.29,475.72 748.23,468.95 772.38,468.75 777.13,483.39 777.85,483.16 778.67,485.70 779.60,488.56 778.88,488.80 781.97,498.35 782.69,498.11 783.53,500.72 784.41,503.44 783.69,503.68 786.78,513.22 787.50,512.99 788.10,514.84 788.87,517.23 788.15,517.46 790.15,523.63" type="building"/>
   <poly color="237,199,199" fill="1" id="13868158" layer="-1.00" shape="784.77,438.81 772.67,418.55 782.19,418.65 784.56,414.55 803.39,414.70 800.63,419.14 805.45,426.61 798.53,438.87 784.77,438.81" type="amenity"/>
   <poly color="red" fill="1" id="13868158#1" layer="-1.00" shape="784.77,438.81 772.67,418.55 782.19,418.65 784.56,414.55 803.39,414.70 800.63,419.14 805.45,426.61 798.53,438.87 784.77,438.81" type="building"/>
   <poly color="red" fill="1" id="13868159" layer="-1.00" shape="747.97,401.35 747.49,361.30 745.62,361.33 745.99,358.56 744.08,343.85 746.36,342.61 746.36,340.46 756.41,339.12 760.20,339.15 760.36,351.94 759.51,351.96 759.64,362.19 760.49,362.17 760.52,365.34 759.67,365.36 759.93,386.60 760.77,386.62 760.81,390.04 759.97,390.04 760.10,401.21 747.97,401.35" type="building"/>
   <poly color="red" fill="1" id="13868160" layer="-1.00" shape="744.42,439.01 744.32,411.24 756.59,411.20 756.63,419.42 756.11,419.43 756.12,424.28 756.64,424.31 756.69,438.96 744.42,439.01" type="building"/>
   <poly color="red" fill="1" id="13868161" layer="-1.00" shape="691.10,394.50 691.15,400.88 685.72,400.92 685.60,384.31 688.43,384.30 688.39,378.84 685.57,378.87 685.53,373.67 701.71,373.55 701.86,394.44 691.10,394.50" type="building"/>
   <poly color="red" fill="1" id="13868162" layer="-1.00" shape="706.18,438.87 706.09,430.89 716.67,430.78 716.56,420.75 726.07,420.66 726.26,438.66 706.18,438.87" type="building"/>
   <poly color="red" fill="1" id="13868163" layer="-1.00" shape="705.97,419.38 705.88,411.41 726.08,411.17 726.17,419.13 705.97,419.38" type="building"/>
   <poly color="red" fill="1" id="13868164" layer="-1.00" shape="685.99,438.93 685.95,433.84 690.67,433.81 690.67,431.86 695.77,431.83 695.69,419.94 685.85,420.01 685.81,414.33 690.41,414.29 690.40,412.45 695.52,412.42 695.44,400.65 701.81,400.61 702.07,438.81 685.99,438.93" type="building"/>
   <poly color="red" fill="1" id="13868165" layer="-1.00" shape="702.26,336.92 702.30,331.26 703.60,331.28 703.74,313.17 701.90,313.15 701.95,305.73 699.52,305.71 699.55,301.94 704.17,301.97 704.22,296.34 707.36,296.37 707.40,292.18 714.02,292.23 714.01,293.34 718.17,293.37 718.12,299.82 716.11,299.80 716.10,301.89 716.41,301.88 716.39,305.05 716.37,307.80 714.81,307.80 714.67,325.59 717.74,325.62 717.72,327.90 717.70,330.73 715.67,330.71 715.61,336.85 702.26,336.92" type="building"/>
   <poly color="red" fill="1" id="14040265" layer="-1.00" shape="606.93,29.19 612.34,28.95 619.38,28.57 619.29,23.36 620.32,22.92 621.51,22.43 622.40,25.06 625.08,24.03 630.42,23.68 630.17,16.09 627.06,15.00 623.94,7.21 611.64,10.84 602.47,16.85 606.76,26.90 606.93,29.19" type="building"/>
   <poly color="red" fill="1" id="14040268" layer="-1.00" shape="593.47,37.59 599.35,37.53 603.05,35.23 603.70,28.94 606.76,26.90 606.93,29.19 612.34,28.95 609.37,47.34 607.95,47.03 607.31,50.93 605.77,60.65 603.90,60.39 603.39,63.52 602.01,73.77 600.40,73.55 599.71,77.45 598.26,86.88 596.70,86.86 595.94,90.54 595.27,94.17 580.39,94.13 580.47,92.45 582.33,90.51 581.97,85.96 584.73,83.74 583.72,79.31 586.43,77.14 585.87,72.75 588.52,70.33 587.47,65.79 590.08,63.72 589.61,59.60 591.89,57.07 591.29,52.69 593.59,51.01 593.47,37.59" type="building"/>
   <poly color="red" fill="1" id="14040269" layer="-1.00" shape="728.53,31.60 725.79,48.42 723.90,48.03 723.67,49.15 723.15,51.68 724.03,51.86 722.08,61.35 719.93,60.90 719.60,62.51 719.56,62.69 719.19,64.52 720.20,64.73 718.10,75.00 716.36,74.64 716.05,76.16 716.01,76.32 715.62,78.26 716.58,78.46 714.60,88.09 712.78,87.73 712.47,89.21 712.06,91.19 713.23,91.42 712.51,94.94 707.91,94.21 707.90,94.86 697.90,94.98 697.92,94.37 699.60,94.33 699.80,88.28 701.35,88.24 701.39,87.07 701.56,81.58 703.34,81.54 703.62,75.25 705.29,75.21 705.30,74.32 705.37,68.36 707.08,68.32 707.16,61.68 708.91,61.61 708.91,60.88 708.92,54.98 710.88,54.93 710.41,38.80 717.76,38.52 717.78,39.17 719.70,39.12 721.04,31.41 723.45,31.36 728.53,31.60" type="building"/>
   <poly color="red" fill="1" id="142040320" layer="-1.00" shape="116.77,758.12 114.78,747.66 111.92,732.64 108.71,715.78 105.67,699.84 102.86,685.06 99.85,669.28 98.44,661.91 86.68,664.15 105.02,760.36 114.58,758.54 116.77,758.12" type="building"/>
   <poly color="red" fill="1" id="142040784" layer="-1.00" shape="260.96,730.75 260.15,726.60 257.44,712.68 254.02,695.21 251.83,684.01 248.97,669.36 245.92,653.73 243.00,638.75 240.59,626.41 232.15,628.06 251.02,732.33 259.50,730.95 260.96,730.75" type="building"/>
   <poly color="red" fill="1" id="163194477" layer="-1.00" shape="255.33,436.21 255.83,438.20 254.91,438.95 250.47,438.99 250.46,438.88 250.27,429.51 249.52,427.93 249.27,427.34 252.62,425.77 253.64,427.54 259.09,424.73 260.16,426.48 265.59,423.53 266.81,425.45 271.95,422.67 273.16,424.63 278.78,421.68 279.83,423.43 284.98,420.74 286.13,422.55 289.70,420.75 289.50,420.35 295.94,415.75 298.06,419.55 301.05,419.17 301.98,427.29 304.10,427.99 303.05,432.13 294.00,431.07 293.93,430.48 255.33,436.21" type="building"/>
   <poly color="red" fill="1" id="163194479" layer="-1.00" shape="149.12,440.74 151.40,440.26 151.92,441.77 161.40,439.73 161.18,437.92 165.21,437.10 165.65,438.69 174.88,436.82 174.71,435.23 176.47,434.76 178.36,445.91 164.58,448.69 151.62,451.71 149.12,440.74" type="building"/>
   <poly color="red" fill="1" id="163194484" layer="-1.00" shape="30.83,487.84 32.86,486.79 33.83,488.21 42.46,483.71 41.79,482.24 45.14,480.51 46.02,481.87 55.02,477.20 54.44,475.57 58.10,473.88 58.87,475.16 67.58,470.64 66.99,469.48 69.38,468.35 69.73,469.45 73.81,478.58 64.16,483.09 54.71,487.83 36.00,497.61 30.83,487.84" type="building"/>
   <poly color="red" fill="0" id="163194485" layer="-1.00" shape="8.25,499.56 9.22,501.05 17.66,496.67 16.95,495.12 20.49,493.27 21.33,494.72 29.98,490.22 29.27,488.72 30.83,487.84 36.00,497.61" type="building"/>
   <poly color="red" fill="1" id="163194486" layer="-1.00" shape="108.01,452.61 110.19,451.88 110.77,453.55 120.31,450.38 119.90,448.84 124.01,447.65 124.36,448.93 133.81,446.43 133.34,444.79 137.46,443.63 137.92,445.24 147.56,442.70 147.26,441.37 149.12,440.74 151.62,451.71 140.79,454.50 131.25,457.19 121.29,460.29 112.02,463.30 108.01,452.61" type="building"/>
   <poly color="red" fill="1" id="163194489" layer="-1.00" shape="80.02,465.48 83.76,474.19 76.17,477.47 73.81,478.58 69.73,469.45 70.43,469.13 70.75,469.50 72.12,468.70 80.02,465.48" type="building"/>
   <poly color="red" fill="1" id="183134263" layer="-1.00" shape="12.96,119.80 7.88,105.44 -2.22,109.00 2.86,123.35 12.96,119.80" type="building"/>
   <poly color="184,184,179" fill="1" id="185985758" layer="-1.00" shape="296.11,464.75 299.30,542.10 315.07,540.63 312.67,464.35 296.11,464.75" type="parking"/>