<?xml version="1.0" encoding="utf-8"?><!-- generated on 10/11/17 17:50:33 by SUMO netconvert Version 0.25.0
<?xml version="1.0" encoding="UTF-8"?>

<configuration xmlns:xsi="http://www.w3.org/2001/XMLSchema-instance" xsi:noNamespaceSchemaLocation="http://sumo.dlr.de/xsd/netconvertConfiguration.xsd">

    <input>
        <type-files value="osmNetconvert.typ.xml"/>
        <osm-files value="B_SiemensStd_urban_800.osm"/>
    </input>

    <output>
        <output-file value="B_SiemensStd_urban_800.net.xml"/>
    </output>

    <projection>
        <proj.utm value="true"/>
    </projection>

    <edge_removal>
        <remove-edges.by-type value="highway.track,highway.unsurfaced,highway.raceway,highway.bridleway,highway.path,highway.footway,highway.pedestrian,highway.cycleway,highway.step,highway.steps,highway.stairs,highway.bus_guideway,highway.ford,railway.rail,railway.tram,railway.light_rail,railway.subway,railway.preserved,railway.narrow_gauge,railway.monorail,railway.funicular"/>
    </edge_removal>

</configuration>
-->
<net version="0.25">
   <location convBoundary="0.00,0.00,806.85,754.11" netOffset="-382981.97,-5821830.18" origBoundary="13.274722,52.534107,13.286672,52.540855" projParameter="+proj=utm +zone=33 +ellps=WGS84 +datum=WGS84 +units=m +no_defs"/>
   <type allow="pedestrian" id="highway.bridleway" numLanes="1" oneway="1" priority="1" speed="2.78" width="2.00"/>
   <type allow="bus" id="highway.bus_guideway" numLanes="1" oneway="1" priority="1" speed="8.33"/>
   <type allow="bicycle" id="highway.cycleway" numLanes="1" oneway="0" priority="1" speed="5.56" width="1.00"/>
   <type allow="pedestrian" id="highway.footway" numLanes="1" oneway="1" priority="1" speed="8.33" width="2.00"/>
   <type allow="army" id="highway.ford" numLanes="1" oneway="0" priority="1" speed="2.78"/>
   <type disallow="tram rail_urban rail rail_electric ship" id="highway.living_street" numLanes="1" oneway="0" priority="3" speed="2.78"/>
   <type allow="private emergency authority army vip passenger hov taxi bus coach delivery truck trailer motorcycle evehicle custom1 custom2" id="highway.motorway" numLanes="2" oneway="1" priority="13" speed="44.44"/>
   <type allow="private emergency authority army vip passenger hov taxi bus coach delivery truck trailer motorcycle evehicle custom1 custom2" id="highway.motorway_link" numLanes="1" oneway="1" priority="12" speed="22.22"/>
   <type allow="bicycle pedestrian" id="highway.path" numLanes="1" oneway="1" priority="1" speed="2.78" width="2.00"/>
   <type allow="pedestrian" id="highway.pedestrian" numLanes="1" oneway="1" priority="1" speed="8.33" width="2.00"/>
   <type disallow="tram rail_urban rail rail_electric ship" id="highway.primary" numLanes="2" oneway="0" priority="9" speed="27.78"/>
   <type disallow="tram rail_urban rail rail_electric ship" id="highway.primary_link" numLanes="1" oneway="0" priority="8" speed="22.22"/>
   <type allow="vip" id="highway.raceway" numLanes="2" oneway="0" priority="14" speed="83.33"/>
   <type disallow="tram rail_urban rail rail_electric ship" id="highway.residential" numLanes="1" oneway="0" priority="4" speed="13.89"/>
   <type disallow="tram rail_urban rail rail_electric ship" id="highway.secondary" numLanes="2" oneway="0" priority="7" speed="27.78"/>
   <type disallow="tram rail_urban rail rail_electric ship" id="highway.secondary_link" numLanes="1" oneway="0" priority="6" speed="22.22"/>
   <type allow="delivery bicycle pedestrian" id="highway.service" numLanes="1" oneway="0" priority="2" speed="5.56"/>
   <type disallow="tram rail_urban rail rail_electric ship" id="highway.services" numLanes="1" oneway="0" priority="1" speed="8.33"/>
   <type allow="pedestrian" id="highway.stairs" numLanes="1" oneway="1" priority="1" speed="1.39" width="2.00"/>
   <type allow="pedestrian" id="highway.step" numLanes="1" oneway="1" priority="1" speed="1.39" width="2.00"/>
   <type allow="pedestrian" id="highway.steps" numLanes="1" oneway="1" priority="1" speed="1.39" width="2.00"/>
   <type disallow="tram rail_urban rail rail_electric ship" id="highway.tertiary" numLanes="1" oneway="0" priority="6" speed="22.22"/>
   <type disallow="tram rail_urban rail rail_electric ship" id="highway.tertiary_link" numLanes="1" oneway="0" priority="5" speed="22.22"/>
   <type disallow="tram rail_urban rail rail_electric ship" id="highway.track" numLanes="1" oneway="0" priority="1" speed="5.56"/>
   <type disallow="tram rail_urban rail rail_electric bicycle pedestrian ship" id="highway.trunk" numLanes="2" oneway="0" priority="11" speed="27.78"/>
   <type disallow="tram rail_urban rail rail_electric bicycle pedestrian ship" id="highway.trunk_link" numLanes="1" oneway="0" priority="10" speed="22.22"/>
   <type disallow="tram rail_urban rail rail_electric ship" id="highway.unclassified" numLanes="1" oneway="0" priority="5" speed="13.89"/>
   <type disallow="tram rail_urban rail rail_electric ship" id="highway.unsurfaced" numLanes="1" oneway="0" priority="1" speed="8.33"/>
   <type allow="rail_urban" id="railway.light_rail" numLanes="1" oneway="1" priority="15" speed="27.78"/>
   <type allow="rail" id="railway.preserved" numLanes="1" oneway="1" priority="15" speed="27.78"/>
   <type allow="rail rail_electric" id="railway.rail" numLanes="1" oneway="1" priority="15" speed="83.33"/>
   <type allow="rail_urban" id="railway.subway" numLanes="1" oneway="1" priority="15" speed="27.78"/>
   <type allow="tram" id="railway.tram" numLanes="1" oneway="1" priority="15" speed="13.89"/>
   <edge function="internal" id=":1006022665_0">
      <lane disallow="tram rail_urban rail rail_electric ship" id=":1006022665_0_0" index="0" length="15.92" shape="152.22,130.61 150.53,127.10 148.87,123.39 147.31,119.63 145.92,116.00" speed="13.89"/>
   </edge>
   <edge function="internal" id=":1006022665_1">
      <lane disallow="tram rail_urban rail rail_electric ship" id=":1006022665_1_0" index="0" length="3.46" shape="152.22,130.61 151.88,128.53 152.49,127.33" speed="20.84"/>
   </edge>
   <edge function="internal" id=":1006022665_2">
      <lane disallow="tram rail_urban rail rail_electric ship" id=":1006022665_2_0" index="0" length="2.41" shape="152.22,130.61 152.40,129.14 152.96,128.40" speed="13.89"/>
   </edge>
   <edge function="internal" id=":1006022665_12">
      <lane id=":1006022665_12_0" index="0" length="8.71" shape="152.49,127.33 152.95,126.42 155.42,124.29 159.29,122.13" speed="20.84"/>
   </edge>
   <edge function="internal" id=":1006022665_13">
      <lane id=":1006022665_13_0" index="0" length="2.41" shape="152.96,128.40 153.88,128.40 155.17,129.14" speed="13.89"/>
   </edge>
   <edge function="internal" id=":1006022665_3">
      <lane disallow="tram rail_urban rail rail_electric ship" id=":1006022665_3_0" index="0" length="8.61" shape="152.12,113.73 152.91,115.32 153.90,116.26 155.08,116.54 156.46,116.17" speed="20.84"/>
      <lane disallow="tram rail_urban rail rail_electric ship" id=":1006022665_3_1" index="1" length="8.61" shape="149.02,114.87 150.56,117.85 152.55,119.55 154.99,119.99 157.87,119.15" speed="20.84"/>
   </edge>
   <edge function="internal" id=":1006022665_5">
      <lane disallow="tram rail_urban rail rail_electric ship" id=":1006022665_5_0" index="0" length="15.55" shape="149.02,114.87 150.79,119.55 152.26,123.06 153.64,126.05 155.17,129.14" speed="13.89"/>
   </edge>
   <edge function="internal" id=":1006022665_6">
      <lane disallow="tram rail_urban rail rail_electric ship" id=":1006022665_6_0" index="0" length="2.41" shape="149.02,114.87 148.67,116.31 148.04,116.98" speed="13.89"/>
   </edge>
   <edge function="internal" id=":1006022665_14">
      <lane id=":1006022665_14_0" index="0" length="2.41" shape="148.04,116.98 147.12,116.88 145.92,116.00" speed="13.89"/>
   </edge>
   <edge function="internal" id=":1006022665_7">
      <lane disallow="tram rail_urban rail rail_electric ship" id=":1006022665_7_0" index="0" length="5.02" shape="144.09,120.08 145.28,119.35 145.98,118.43 146.19,117.31 145.92,116.00" speed="20.84"/>
   </edge>
   <edge function="internal" id=":1006022665_8">
      <lane disallow="tram rail_urban rail rail_electric ship" id=":1006022665_8_0" index="0" length="13.09" shape="144.09,120.08 147.70,118.75 150.30,118.18 152.89,117.58 156.46,116.17" speed="27.78"/>
      <lane disallow="tram rail_urban rail rail_electric ship" id=":1006022665_8_1" index="1" length="13.09" shape="145.43,123.09 149.06,121.76 151.68,121.18 154.28,120.58 157.87,119.15" speed="27.78"/>
      <lane disallow="tram rail_urban rail rail_electric ship" id=":1006022665_8_2" index="2" length="13.09" shape="146.76,126.11 150.42,124.77 153.05,124.18 155.67,123.57 159.29,122.13" speed="27.78"/>
   </edge>
   <edge function="internal" id=":1006022665_11">
      <lane disallow="tram rail_urban rail rail_electric ship" id=":1006022665_11_0" index="0" length="7.71" shape="148.10,129.13 150.71,128.17 152.76,127.85 154.25,128.18 155.17,129.14" speed="20.84"/>
   </edge>
   <edge function="internal" id=":1006022705_0">
      <lane disallow="tram rail_urban rail rail_electric ship" id=":1006022705_0_0" index="0" length="2.44" shape="124.78,58.07 124.10,55.73" speed="13.89"/>
   </edge>
   <edge function="internal" id=":1006022705_1">
      <lane disallow="tram rail_urban rail rail_electric ship" id=":1006022705_1_0" index="0" length="2.58" shape="124.78,58.07 125.13,56.63 125.76,55.96 125.94,55.98" speed="13.89"/>
   </edge>
   <edge function="internal" id=":1006022705_5">
      <lane id=":1006022705_5_0" index="0" length="2.23" shape="125.94,55.98 126.68,56.06 127.88,56.94" speed="13.89"/>
   </edge>
   <edge function="internal" id=":1006022705_2">
      <lane disallow="tram rail_urban rail rail_electric ship" id=":1006022705_2_0" index="0" length="2.87" shape="127.33,55.02 130.98,55.81" speed="13.89"/>
      <lane disallow="tram rail_urban rail rail_electric ship" id=":1006022705_2_1" index="1" length="2.87" shape="127.33,55.02 127.88,56.94" speed="13.89"/>
   </edge>
   <edge function="internal" id=":1006022705_4">
      <lane disallow="tram rail_urban rail rail_electric ship" id=":1006022705_4_0" index="0" length="2.41" shape="127.33,55.02 126.79,56.40 126.07,56.98" speed="13.89"/>
   </edge>
   <edge function="internal" id=":1006022705_6">
      <lane id=":1006022705_6_0" index="0" length="2.41" shape="126.07,56.98 125.18,56.76 124.10,55.73" speed="13.89"/>
   </edge>
   <edge function="internal" id=":1395881312_0">
      <lane disallow="tram rail_urban rail rail_electric ship" id=":1395881312_0_0" index="0" length="4.82" shape="347.95,706.49 347.30,707.83 346.54,708.35 345.66,708.05 344.68,706.94" speed="8.33"/>
   </edge>
   <edge function="internal" id=":1398482897_0">
      <lane disallow="tram rail_urban rail rail_electric ship" id=":1398482897_0_0" index="0" length="0.10" shape="259.19,452.66 259.23,452.66" speed="8.33"/>
   </edge>
   <edge function="internal" id=":1398482897_1">
      <lane disallow="tram rail_urban rail rail_electric ship" id=":1398482897_1_0" index="0" length="2.41" shape="259.19,452.66 257.98,451.81 257.59,450.97" speed="8.33"/>
   </edge>
   <edge function="internal" id=":1398482897_4">
      <lane id=":1398482897_4_0" index="0" length="2.41" shape="257.59,450.97 258.02,450.16 259.28,449.36" speed="8.33"/>
   </edge>
   <edge function="internal" id=":1398482897_2">
      <lane disallow="tram rail_urban rail rail_electric ship" id=":1398482897_2_0" index="0" length="0.10" shape="259.27,449.36 259.28,449.36" speed="8.33"/>
   </edge>
   <edge function="internal" id=":1398482897_3">
      <lane disallow="tram rail_urban rail rail_electric ship" id=":1398482897_3_0" index="0" length="2.41" shape="259.27,449.36 260.50,450.20 260.90,451.03" speed="8.33"/>
   </edge>
   <edge function="internal" id=":1398482897_5">
      <lane id=":1398482897_5_0" index="0" length="2.41" shape="260.90,451.03 260.48,451.85 259.23,452.66" speed="8.33"/>
   </edge>
   <edge function="internal" id=":1398482899_0">
      <lane disallow="tram rail_urban rail rail_electric ship" id=":1398482899_0_0" index="0" length="0.15" shape="221.44,453.49 221.29,453.50" speed="8.33"/>
   </edge>
   <edge function="internal" id=":1398482899_1">
      <lane disallow="tram rail_urban rail rail_electric ship" id=":1398482899_1_0" index="0" length="2.41" shape="221.44,453.49 220.17,452.71 219.73,451.90" speed="8.33"/>
   </edge>
   <edge function="internal" id=":1398482899_4">
      <lane id=":1398482899_4_0" index="0" length="2.41" shape="219.73,451.90 220.11,451.06 221.32,450.19" speed="8.33"/>
   </edge>
   <edge function="internal" id=":1398482899_2">
      <lane disallow="tram rail_urban rail rail_electric ship" id=":1398482899_2_0" index="0" length="0.45" shape="220.87,450.22 221.32,450.19" speed="8.33"/>
   </edge>
   <edge function="internal" id=":1398482899_3">
      <lane disallow="tram rail_urban rail rail_electric ship" id=":1398482899_3_0" index="0" length="2.41" shape="220.87,450.22 222.21,450.89 222.72,451.65" speed="8.33"/>
   </edge>
   <edge function="internal" id=":1398482899_5">
      <lane id=":1398482899_5_0" index="0" length="2.41" shape="222.72,451.65 222.42,452.52 221.29,453.50" speed="8.33"/>
   </edge>
   <edge function="internal" id=":1398482900_0">
      <lane disallow="tram rail_urban rail rail_electric ship" id=":1398482900_0_0" index="0" length="0.12" shape="185.56,458.06 185.44,458.08" speed="8.33"/>
   </edge>
   <edge function="internal" id=":1398482900_1">
      <lane disallow="tram rail_urban rail rail_electric ship" id=":1398482900_1_0" index="0" length="2.41" shape="185.56,458.06 184.23,457.40 183.72,456.63" speed="8.33"/>
   </edge>
   <edge function="internal" id=":1398482900_4">
      <lane id=":1398482900_4_0" index="0" length="2.41" shape="183.72,456.63 184.02,455.76 185.14,454.79" speed="8.33"/>
   </edge>
   <edge function="internal" id=":1398482900_2">
      <lane disallow="tram rail_urban rail rail_electric ship" id=":1398482900_2_0" index="0" length="0.38" shape="184.77,454.85 185.14,454.79" speed="8.33"/>
   </edge>
   <edge function="internal" id=":1398482900_3">
      <lane disallow="tram rail_urban rail rail_electric ship" id=":1398482900_3_0" index="0" length="2.41" shape="184.77,454.85 186.15,455.41 186.72,456.13" speed="8.33"/>
   </edge>
   <edge function="internal" id=":1398482900_5">
      <lane id=":1398482900_5_0" index="0" length="2.41" shape="186.72,456.13 186.49,457.02 185.44,458.08" speed="8.33"/>
   </edge>
   <edge function="internal" id=":1398482901_0">
      <lane disallow="tram rail_urban rail rail_electric ship" id=":1398482901_0_0" index="0" length="0.10" shape="149.25,466.75 149.28,466.74" speed="8.33"/>
   </edge>
   <edge function="internal" id=":1398482901_1">
      <lane disallow="tram rail_urban rail rail_electric ship" id=":1398482901_1_0" index="0" length="2.41" shape="149.25,466.75 147.85,466.27 147.24,465.57" speed="8.33"/>
   </edge>
   <edge function="internal" id=":1398482901_4">
      <lane id=":1398482901_4_0" index="0" length="2.41" shape="147.24,465.57 147.43,464.67 148.42,463.56" speed="8.33"/>
   </edge>
   <edge function="internal" id=":1398482901_2">
      <lane disallow="tram rail_urban rail rail_electric ship" id=":1398482901_2_0" index="0" length="0.10" shape="148.41,463.56 148.42,463.56" speed="8.33"/>
   </edge>
   <edge function="internal" id=":1398482901_3">
      <lane disallow="tram rail_urban rail rail_electric ship" id=":1398482901_3_0" index="0" length="2.41" shape="148.41,463.56 149.82,464.03 150.44,464.72" speed="8.33"/>
   </edge>
   <edge function="internal" id=":1398482901_5">
      <lane id=":1398482901_5_0" index="0" length="2.41" shape="150.44,464.72 150.26,465.62 149.28,466.74" speed="8.33"/>
   </edge>
   <edge function="internal" id=":1398482902_0">
      <lane disallow="tram rail_urban rail rail_electric ship" id=":1398482902_0_0" index="0" length="0.17" shape="113.37,476.83 113.21,476.88" speed="8.33"/>
   </edge>
   <edge function="internal" id=":1398482902_1">
      <lane disallow="tram rail_urban rail rail_electric ship" id=":1398482902_1_0" index="0" length="2.41" shape="113.37,476.83 111.96,476.37 111.34,475.69" speed="8.33"/>
   </edge>
   <edge function="internal" id=":1398482902_4">
      <lane id=":1398482902_4_0" index="0" length="2.41" shape="111.34,475.69 111.51,474.78 112.48,473.65" speed="8.33"/>
   </edge>
   <edge function="internal" id=":1398482902_2">
      <lane disallow="tram rail_urban rail rail_electric ship" id=":1398482902_2_0" index="0" length="0.53" shape="111.98,473.82 112.48,473.65" speed="8.33"/>
   </edge>
   <edge function="internal" id=":1398482902_3">
      <lane disallow="tram rail_urban rail rail_electric ship" id=":1398482902_3_0" index="0" length="2.41" shape="111.98,473.82 113.43,474.13 114.12,474.74" speed="8.33"/>
   </edge>
   <edge function="internal" id=":1398482902_5">
      <lane id=":1398482902_5_0" index="0" length="2.41" shape="114.12,474.74 114.05,475.66 113.21,476.88" speed="8.33"/>
   </edge>
   <edge function="internal" id=":1398482903_0">
      <lane disallow="tram rail_urban rail rail_electric ship" id=":1398482903_0_0" index="0" length="4.82" shape="40.97,510.85 39.49,510.70 38.74,510.17 38.72,509.24 39.43,507.93" speed="8.33"/>
   </edge>
   <edge function="internal" id=":1401277370_0">
      <lane allow="delivery bicycle pedestrian" id=":1401277370_0_0" index="0" length="0.31" shape="298.67,613.45 298.38,613.34" speed="5.56"/>
   </edge>
   <edge function="internal" id=":1554612534_0">
      <lane disallow="tram rail_urban rail rail_electric ship" id=":1554612534_0_0" index="0" length="0.18" shape="77.75,491.39 77.59,491.47" speed="8.33"/>
   </edge>
   <edge function="internal" id=":1554612534_1">
      <lane disallow="tram rail_urban rail rail_electric ship" id=":1554612534_1_0" index="0" length="2.41" shape="77.75,491.39 76.27,491.23 75.52,490.69" speed="8.33"/>
   </edge>
   <edge function="internal" id=":1554612534_4">
      <lane id=":1554612534_4_0" index="0" length="2.41" shape="75.52,490.69 75.51,489.77 76.22,488.46" speed="8.33"/>
   </edge>
   <edge function="internal" id=":1554612534_2">
      <lane disallow="tram rail_urban rail rail_electric ship" id=":1554612534_2_0" index="0" length="0.10" shape="76.18,488.48 76.22,488.46" speed="8.33"/>
   </edge>
   <edge function="internal" id=":1554612534_3">
      <lane disallow="tram rail_urban rail rail_electric ship" id=":1554612534_3_0" index="0" length="2.41" shape="76.18,488.48 77.65,488.70 78.37,489.27" speed="8.33"/>
   </edge>
   <edge function="internal" id=":1554612534_5">
      <lane id=":1554612534_5_0" index="0" length="2.41" shape="78.37,489.27 78.36,490.19 77.59,491.47" speed="8.33"/>
   </edge>
   <edge function="internal" id=":1554631435_0">
      <lane allow="delivery bicycle pedestrian" id=":1554631435_0_0" index="0" length="0.20" shape="279.09,614.45 278.89,614.48" speed="5.56"/>
   </edge>
   <edge function="internal" id=":1554631435_1">
      <lane allow="delivery bicycle pedestrian" id=":1554631435_1_0" index="0" length="2.41" shape="279.09,614.45 277.73,613.84 277.19,613.09" speed="5.56"/>
   </edge>
   <edge function="internal" id=":1554631435_4">
      <lane id=":1554631435_4_0" index="0" length="2.41" shape="277.19,613.09 277.46,612.21 278.55,611.19" speed="5.56"/>
   </edge>
   <edge function="internal" id=":1554631435_2">
      <lane allow="delivery bicycle pedestrian" id=":1554631435_2_0" index="0" length="0.10" shape="278.49,611.20 278.55,611.19" speed="5.56"/>
   </edge>
   <edge function="internal" id=":1554631435_3">
      <lane allow="delivery bicycle pedestrian" id=":1554631435_3_0" index="0" length="2.41" shape="278.49,611.20 279.82,611.87 280.33,612.64" speed="5.56"/>
   </edge>
   <edge function="internal" id=":1554631435_5">
      <lane id=":1554631435_5_0" index="0" length="2.41" shape="280.33,612.64 280.02,613.51 278.89,614.48" speed="5.56"/>
   </edge>
   <edge function="internal" id=":1554631436_0">
      <lane allow="delivery bicycle pedestrian" id=":1554631436_0_0" index="0" length="0.10" shape="241.25,620.88 241.27,620.88" speed="5.56"/>
   </edge>
   <edge function="internal" id=":1554631436_1">
      <lane allow="delivery bicycle pedestrian" id=":1554631436_1_0" index="0" length="2.41" shape="241.25,620.88 239.89,620.27 239.35,619.53" speed="5.56"/>
   </edge>
   <edge function="internal" id=":1554631436_4">
      <lane id=":1554631436_4_0" index="0" length="2.41" shape="239.35,619.53 239.62,618.65 240.70,617.63" speed="5.56"/>
   </edge>
   <edge function="internal" id=":1554631436_2">
      <lane allow="delivery bicycle pedestrian" id=":1554631436_2_0" index="0" length="0.10" shape="240.70,617.63 240.70,617.63" speed="5.56"/>
   </edge>
   <edge function="internal" id=":1554631436_3">
      <lane allow="delivery bicycle pedestrian" id=":1554631436_3_0" index="0" length="2.41" shape="240.70,617.63 242.06,618.22 242.61,618.96" speed="5.56"/>
   </edge>
   <edge function="internal" id=":1554631436_5">
      <lane id=":1554631436_5_0" index="0" length="2.41" shape="242.61,618.96 242.35,619.85 241.27,620.88" speed="5.56"/>
   </edge>
   <edge function="internal" id=":1554631438_0">
      <lane allow="delivery bicycle pedestrian" id=":1554631438_0_0" index="0" length="0.10" shape="207.31,627.08 207.34,627.08" speed="5.56"/>
   </edge>
   <edge function="internal" id=":1554631438_1">
      <lane allow="delivery bicycle pedestrian" id=":1554631438_1_0" index="0" length="2.41" shape="207.31,627.08 205.95,626.50 205.39,625.76" speed="5.56"/>
   </edge>
   <edge function="internal" id=":1554631438_4">
      <lane id=":1554631438_4_0" index="0" length="2.41" shape="205.39,625.76 205.65,624.87 206.72,623.84" speed="5.56"/>
   </edge>
   <edge function="internal" id=":1554631438_2">
      <lane allow="delivery bicycle pedestrian" id=":1554631438_2_0" index="0" length="0.10" shape="206.71,623.84 206.72,623.84" speed="5.56"/>
   </edge>
   <edge function="internal" id=":1554631438_3">
      <lane allow="delivery bicycle pedestrian" id=":1554631438_3_0" index="0" length="2.41" shape="206.71,623.84 208.08,624.41 208.64,625.14" speed="5.56"/>
   </edge>
   <edge function="internal" id=":1554631438_5">
      <lane id=":1554631438_5_0" index="0" length="2.41" shape="208.64,625.14 208.40,626.03 207.34,627.08" speed="5.56"/>
   </edge>
   <edge function="internal" id=":1554631439_0">
      <lane allow="delivery bicycle pedestrian" id=":1554631439_0_0" index="0" length="0.10" shape="170.57,634.60 170.57,634.60" speed="5.56"/>
   </edge>
   <edge function="internal" id=":1554631439_1">
      <lane allow="delivery bicycle pedestrian" id=":1554631439_1_0" index="0" length="2.41" shape="170.57,634.60 169.19,634.04 168.62,633.31" speed="5.56"/>
   </edge>
   <edge function="internal" id=":1554631439_4">
      <lane id=":1554631439_4_0" index="0" length="2.41" shape="168.62,633.31 168.86,632.42 169.91,631.37" speed="5.56"/>
   </edge>
   <edge function="internal" id=":1554631439_2">
      <lane allow="delivery bicycle pedestrian" id=":1554631439_2_0" index="0" length="0.10" shape="169.91,631.37 169.91,631.37" speed="5.56"/>
   </edge>
   <edge function="internal" id=":1554631439_3">
      <lane allow="delivery bicycle pedestrian" id=":1554631439_3_0" index="0" length="2.41" shape="169.91,631.37 171.29,631.93 171.86,632.65" speed="5.56"/>
   </edge>
   <edge function="internal" id=":1554631439_5">
      <lane id=":1554631439_5_0" index="0" length="2.41" shape="171.86,632.65 171.62,633.55 170.57,634.60" speed="5.56"/>
   </edge>
   <edge function="internal" id=":1554631440_0">
      <lane allow="delivery bicycle pedestrian" id=":1554631440_0_0" index="0" length="0.10" shape="116.98,645.46 116.97,645.47" speed="5.56"/>
   </edge>
   <edge function="internal" id=":1554631440_1">
      <lane allow="delivery bicycle pedestrian" id=":1554631440_1_0" index="0" length="2.41" shape="116.98,645.46 115.60,644.89 115.04,644.16" speed="5.56"/>
   </edge>
   <edge function="internal" id=":1554631440_4">
      <lane id=":1554631440_4_0" index="0" length="2.41" shape="115.04,644.16 115.28,643.28 116.34,642.23" speed="5.56"/>
   </edge>
   <edge function="internal" id=":1554631440_2">
      <lane allow="delivery bicycle pedestrian" id=":1554631440_2_0" index="0" length="0.10" shape="116.38,642.22 116.34,642.23" speed="5.56"/>
   </edge>
   <edge function="internal" id=":1554631440_3">
      <lane allow="delivery bicycle pedestrian" id=":1554631440_3_0" index="0" length="2.41" shape="116.38,642.22 117.75,642.81 118.30,643.55" speed="5.56"/>
   </edge>
   <edge function="internal" id=":1554631440_5">
      <lane id=":1554631440_5_0" index="0" length="2.41" shape="118.30,643.55 118.04,644.43 116.97,645.47" speed="5.56"/>
   </edge>
   <edge function="internal" id=":1554631441_0">
      <lane allow="delivery bicycle pedestrian" id=":1554631441_0_0" index="0" length="4.82" shape="106.04,647.39 104.68,646.79 104.13,646.05 104.39,645.16 105.47,644.14" speed="5.56"/>
   </edge>
   <edge function="internal" id=":1571568796_0">
      <lane disallow="tram rail_urban rail rail_electric ship" id=":1571568796_0_0" index="0" length="0.10" shape="416.30,452.49 416.32,452.49" speed="8.33"/>
   </edge>
   <edge function="internal" id=":1571568796_1">
      <lane disallow="tram rail_urban rail rail_electric ship" id=":1571568796_1_0" index="0" length="2.41" shape="416.30,452.49 415.06,451.66 414.65,450.84" speed="8.33"/>
   </edge>
   <edge function="internal" id=":1571568796_4">
      <lane id=":1571568796_4_0" index="0" length="2.41" shape="414.65,450.84 415.06,450.01 416.30,449.19" speed="8.33"/>
   </edge>
   <edge function="internal" id=":1571568796_2">
      <lane disallow="tram rail_urban rail rail_electric ship" id=":1571568796_2_0" index="0" length="0.10" shape="416.29,449.19 416.30,449.19" speed="8.33"/>
   </edge>
   <edge function="internal" id=":1571568796_3">
      <lane disallow="tram rail_urban rail rail_electric ship" id=":1571568796_3_0" index="0" length="2.41" shape="416.29,449.19 417.54,450.01 417.96,450.83" speed="8.33"/>
   </edge>
   <edge function="internal" id=":1571568796_5">
      <lane id=":1571568796_5_0" index="0" length="2.41" shape="417.96,450.83 417.55,451.66 416.32,452.49" speed="8.33"/>
   </edge>
   <edge function="internal" id=":1752997850_0">
      <lane allow="delivery bicycle pedestrian" id=":1752997850_0_0" index="0" length="7.80" shape="120.47,39.22 120.31,37.09 120.86,35.41 122.13,34.18 124.11,33.40" speed="9.73"/>
   </edge>
   <edge function="internal" id=":1752997850_1">
      <lane disallow="tram rail_urban rail rail_electric ship" id=":1752997850_1_0" index="0" length="4.82" shape="120.47,39.22 121.01,37.83 121.72,37.25 122.62,37.47 123.69,38.51" speed="13.89"/>
   </edge>
   <edge function="internal" id=":1752997850_2">
      <lane disallow="tram rail_urban rail rail_electric ship" id=":1752997850_2_0" index="0" length="2.55" shape="124.88,36.61 124.23,36.86 123.82,37.26 123.64,37.81 123.69,38.51" speed="9.73"/>
   </edge>
   <edge function="internal" id=":1752997850_3">
      <lane allow="delivery bicycle pedestrian" id=":1752997850_3_0" index="0" length="4.82" shape="124.88,36.61 123.48,36.09 122.89,35.39 123.10,34.49 124.11,33.40" speed="5.56"/>
   </edge>
   <edge function="internal" id=":1841743001_0">
      <lane allow="delivery bicycle pedestrian" id=":1841743001_0_0" index="0" length="0.44" shape="31.53,36.36 31.37,35.95" speed="5.56"/>
   </edge>
   <edge function="internal" id=":1841743001_1">
      <lane allow="delivery bicycle pedestrian" id=":1841743001_1_0" index="0" length="2.41" shape="31.53,36.36 31.81,34.91 32.42,34.21" speed="5.56"/>
   </edge>
   <edge function="internal" id=":1841743001_4">
      <lane id=":1841743001_4_0" index="0" length="2.41" shape="32.42,34.21 33.34,34.28 34.57,35.10" speed="5.56"/>
   </edge>
   <edge function="internal" id=":1841743001_2">
      <lane allow="delivery bicycle pedestrian" id=":1841743001_2_0" index="0" length="0.14" shape="34.53,34.97 34.57,35.10" speed="5.56"/>
   </edge>
   <edge function="internal" id=":1841743001_3">
      <lane allow="delivery bicycle pedestrian" id=":1841743001_3_0" index="0" length="2.41" shape="34.53,34.97 34.11,36.39 33.44,37.03" speed="5.56"/>
   </edge>
   <edge function="internal" id=":1841743001_5">
      <lane id=":1841743001_5_0" index="0" length="2.41" shape="33.44,37.03 32.53,36.88 31.37,35.95" speed="5.56"/>
   </edge>
   <edge function="internal" id=":1887807856_0">
      <lane disallow="tram rail_urban rail rail_electric ship" id=":1887807856_0_0" index="0" length="5.06" shape="534.50,457.56 534.28,456.17 533.70,455.17 532.74,454.55 531.41,454.32" speed="11.11"/>
   </edge>
   <edge function="internal" id=":1887807856_1">
      <lane disallow="tram rail_urban rail rail_electric ship" id=":1887807856_1_0" index="0" length="7.92" shape="534.50,457.56 534.65,454.76 535.21,452.75 536.20,451.54 537.60,451.12" speed="11.11"/>
   </edge>
   <edge function="internal" id=":1887807856_2">
      <lane disallow="tram rail_urban rail rail_electric ship" id=":1887807856_2_0" index="0" length="6.22" shape="537.63,454.42 531.41,454.32" speed="8.33"/>
   </edge>
   <edge function="internal" id=":1887807856_3">
      <lane disallow="tram rail_urban rail rail_electric ship" id=":1887807856_3_0" index="0" length="4.82" shape="537.63,454.42 536.38,453.61 535.96,452.79 536.37,451.96 537.60,451.12" speed="8.33"/>
   </edge>
   <edge function="internal" id=":1887807856_4">
      <lane disallow="tram rail_urban rail rail_electric ship" id=":1887807856_4_0" index="0" length="6.11" shape="531.49,451.02 537.60,451.12" speed="8.33"/>
   </edge>
   <edge function="internal" id=":1887807856_5">
      <lane disallow="tram rail_urban rail rail_electric ship" id=":1887807856_5_0" index="0" length="4.82" shape="531.49,451.02 532.71,451.88 533.10,452.71 532.66,453.53 531.41,454.32" speed="8.33"/>
   </edge>
   <edge function="internal" id=":1887807857_0">