<?xml version="1.0" encoding="utf-8"?><!-- generated on 10/11/17 17:49:43 by SUMO netconvert Version 0.25.0
<?xml version="1.0" encoding="UTF-8"?>

<configuration xmlns:xsi="http://www.w3.org/2001/XMLSchema-instance" xsi:noNamespaceSchemaLocation="http://sumo.dlr.de/xsd/netconvertConfiguration.xsd">

    <input>
        <type-files value="osmNetconvert.typ.xml"/>
        <osm-files value="BN_Altstadt_historical_800.osm"/>
    </input>

    <output>
        <output-file value="BN_Altstadt_historical_800.net.xml"/>
    </output>

    <projection>
        <proj.utm value="true"/>
    </projection>

    <edge_removal>
        <remove-edges.by-type value="highway.track,highway.unsurfaced,highway.raceway,highway.bridleway,highway.path,highway.footway,highway.pedestrian,highway.cycleway,highway.step,highway.steps,highway.stairs,highway.bus_guideway,highway.ford,railway.rail,railway.tram,railway.light_rail,railway.subway,railway.preserved,railway.narrow_gauge,railway.monorail,railway.funicular"/>
    </edge_removal>

</configuration>
-->
<net version="0.25">
   <location convBoundary="0.00,0.00,939.62,934.85" netOffset="-365405.61,-5621685.96" origBoundary="7.092666,50.731501,7.105895,50.739799" projParameter="+proj=utm +zone=32 +ellps=WGS84 +datum=WGS84 +units=m +no_defs"/>
   <type allow="pedestrian" id="highway.bridleway" numLanes="1" oneway="1" priority="1" speed="2.78" width="2.00"/>
   <type allow="bus" id="highway.bus_guideway" numLanes="1" oneway="1" priority="1" speed="8.33"/>
   <type allow="bicycle" id="highway.cycleway" numLanes="1" oneway="0" priority="1" speed="5.56" width="1.00"/>
   <type allow="pedestrian" id="highway.footway" numLanes="1" oneway="1" priority="1" speed="8.33" width="2.00"/>
   <type allow="army" id="highway.ford" numLanes="1" oneway="0" priority="1" speed="2.78"/>
   <type disallow="tram rail_urban rail rail_electric ship" id="highway.living_street" numLanes="1" oneway="0" priority="3" speed="2.78"/>
   <type allow="private emergency authority army vip passenger hov taxi bus coach delivery truck trailer motorcycle evehicle custom1 custom2" id="highway.motorway" numLanes="2" oneway="1" priority="13" speed="44.44"/>
   <type allow="private emergency authority army vip passenger hov taxi bus coach delivery truck trailer motorcycle evehicle custom1 custom2" id="highway.motorway_link" numLanes="1" oneway="1" priority="12" speed="22.22"/>
   <type allow="bicycle pedestrian" id="highway.path" numLanes="1" oneway="1" priority="1" speed="2.78" width="2.00"/>
   <type allow="pedestrian" id="highway.pedestrian" numLanes="1" oneway="1" priority="1" speed="8.33" width="2.00"/>
   <type disallow="tram rail_urban rail rail_electric ship" id="highway.primary" numLanes="2" oneway="0" priority="9" speed="27.78"/>
   <type disallow="tram rail_urban rail rail_electric ship" id="highway.primary_link" numLanes="1" oneway="0" priority="8" speed="22.22"/>
   <type allow="vip" id="highway.raceway" numLanes="2" oneway="0" priority="14" speed="83.33"/>
   <type disallow="tram rail_urban rail rail_electric ship" id="highway.residential" numLanes="1" oneway="0" priority="4" speed="13.89"/>
   <type disallow="tram rail_urban rail rail_electric ship" id="highway.secondary" numLanes="2" oneway="0" priority="7" speed="27.78"/>
   <type disallow="tram rail_urban rail rail_electric ship" id="highway.secondary_link" numLanes="1" oneway="0" priority="6" speed="22.22"/>
   <type allow="delivery bicycle pedestrian" id="highway.service" numLanes="1" oneway="0" priority="2" speed="5.56"/>
   <type disallow="tram rail_urban rail rail_electric ship" id="highway.services" numLanes="1" oneway="0" priority="1" speed="8.33"/>
   <type allow="pedestrian" id="highway.stairs" numLanes="1" oneway="1" priority="1" speed="1.39" width="2.00"/>
   <type allow="pedestrian" id="highway.step" numLanes="1" oneway="1" priority="1" speed="1.39" width="2.00"/>
   <type allow="pedestrian" id="highway.steps" numLanes="1" oneway="1" priority="1" speed="1.39" width="2.00"/>
   <type disallow="tram rail_urban rail rail_electric ship" id="highway.tertiary" numLanes="1" oneway="0" priority="6" speed="22.22"/>
   <type disallow="tram rail_urban rail rail_electric ship" id="highway.tertiary_link" numLanes="1" oneway="0" priority="5" speed="22.22"/>
   <type disallow="tram rail_urban rail rail_electric ship" id="highway.track" numLanes="1" oneway="0" priority="1" speed="5.56"/>
   <type disallow="tram rail_urban rail rail_electric bicycle pedestrian ship" id="highway.trunk" numLanes="2" oneway="0" priority="11" speed="27.78"/>
   <type disallow="tram rail_urban rail rail_electric bicycle pedestrian ship" id="highway.trunk_link" numLanes="1" oneway="0" priority="10" speed="22.22"/>
   <type disallow="tram rail_urban rail rail_electric ship" id="highway.unclassified" numLanes="1" oneway="0" priority="5" speed="13.89"/>
   <type disallow="tram rail_urban rail rail_electric ship" id="highway.unsurfaced" numLanes="1" oneway="0" priority="1" speed="8.33"/>
   <type allow="rail_urban" id="railway.light_rail" numLanes="1" oneway="1" priority="15" speed="27.78"/>
   <type allow="rail" id="railway.preserved" numLanes="1" oneway="1" priority="15" speed="27.78"/>
   <type allow="rail rail_electric" id="railway.rail" numLanes="1" oneway="1" priority="15" speed="83.33"/>
   <type allow="rail_urban" id="railway.subway" numLanes="1" oneway="1" priority="15" speed="27.78"/>
   <type allow="tram" id="railway.tram" numLanes="1" oneway="1" priority="15" speed="13.89"/>
   <edge function="internal" id=":105706764_0">
      <lane allow="delivery bicycle pedestrian" id=":105706764_0_0" index="0" length="0.10" shape="78.83,592.97 78.83,592.97" speed="5.56"/>
   </edge>
   <edge function="internal" id=":1071253409_0">
      <lane disallow="tram rail_urban rail rail_electric ship" id=":1071253409_0_0" index="0" length="2.36" shape="792.64,650.51 790.09,654.37" speed="13.89"/>
      <lane disallow="tram rail_urban rail rail_electric ship" id=":1071253409_0_1" index="1" length="2.36" shape="787.34,652.55 787.34,652.55" speed="13.89"/>
   </edge>
   <edge function="internal" id=":1071253416_0">
      <lane disallow="tram rail_urban rail rail_electric ship" id=":1071253416_0_0" index="0" length="0.43" shape="777.04,653.40 777.45,652.90" speed="13.89"/>
      <lane disallow="tram rail_urban rail rail_electric ship" id=":1071253416_0_1" index="1" length="0.43" shape="779.71,655.33 779.85,655.17" speed="13.89"/>
   </edge>
   <edge function="internal" id=":1071253429_0">
      <lane disallow="tram rail_urban rail rail_electric ship" id=":1071253429_0_0" index="0" length="1.91" shape="785.91,660.70 785.91,660.70" speed="13.89"/>
      <lane disallow="tram rail_urban rail rail_electric ship" id=":1071253429_0_1" index="1" length="1.91" shape="783.16,658.88 781.11,661.98" speed="13.89"/>
   </edge>
   <edge function="internal" id=":1071345101_0">
      <lane disallow="tram rail_urban rail rail_electric ship" id=":1071345101_0_0" index="0" length="7.86" shape="782.12,644.65 783.35,644.26 784.65,643.23 786.03,641.55 787.48,639.22" speed="13.89"/>
   </edge>
   <edge function="internal" id=":1071345101_1">
      <lane disallow="tram rail_urban rail rail_electric ship" id=":1071345101_1_0" index="0" length="3.50" shape="782.12,644.65 784.15,646.22" speed="13.89"/>
      <lane disallow="tram rail_urban rail rail_electric ship" id=":1071345101_1_1" index="1" length="3.50" shape="780.73,648.02 784.92,649.43" speed="13.89"/>
   </edge>
   <edge function="internal" id=":1071345101_3">
      <lane disallow="tram rail_urban rail rail_electric ship" id=":1071345101_3_0" index="0" length="12.97" shape="781.11,649.04 783.40,646.44 784.73,644.46 785.84,642.31 787.48,639.22" speed="13.89"/>
      <lane disallow="tram rail_urban rail rail_electric ship" id=":1071345101_3_1" index="1" length="12.97" shape="782.40,652.48 785.21,649.37 786.90,647.05 788.34,644.53 790.36,640.84" speed="13.89"/>
   </edge>
   <edge function="internal" id=":1071345102_0">
      <lane disallow="tram rail_urban rail rail_electric ship" id=":1071345102_0_0" index="0" length="0.25" shape="822.85,579.07 822.91,578.97" speed="13.89"/>
      <lane disallow="tram rail_urban rail rail_electric ship" id=":1071345102_0_1" index="1" length="0.25" shape="825.63,580.85 825.82,580.53" speed="13.89"/>
   </edge>
   <edge function="internal" id=":1071345119_0">
      <lane disallow="tram rail_urban rail rail_electric ship" id=":1071345119_0_0" index="0" length="1.97" shape="788.31,667.03 784.49,667.41" speed="13.89"/>
      <lane disallow="tram rail_urban rail rail_electric ship" id=":1071345119_0_1" index="1" length="1.97" shape="787.94,663.76 787.97,663.75" speed="13.89"/>
   </edge>
   <edge function="internal" id=":1071345154_0">
      <lane disallow="tram rail_urban rail rail_electric ship" id=":1071345154_0_0" index="0" length="0.25" shape="760.95,677.25 761.13,676.91" speed="27.78"/>
      <lane disallow="tram rail_urban rail rail_electric ship" id=":1071345154_0_1" index="1" length="0.25" shape="763.89,678.74 763.95,678.63" speed="27.78"/>
   </edge>
   <edge function="internal" id=":1071345159_0">
      <lane disallow="tram rail_urban rail rail_electric ship" id=":1071345159_0_0" index="0" length="0.20" shape="791.37,632.29 791.53,632.03" speed="13.89"/>
      <lane disallow="tram rail_urban rail rail_electric ship" id=":1071345159_0_1" index="1" length="0.20" shape="794.25,633.90 794.30,633.82" speed="13.89"/>
   </edge>
   <edge function="internal" id=":1071345162_0">
      <lane disallow="tram rail_urban rail rail_electric ship" id=":1071345162_0_0" index="0" length="0.10" shape="797.96,622.09 797.91,622.16" speed="13.89"/>
      <lane disallow="tram rail_urban rail rail_electric ship" id=":1071345162_0_1" index="1" length="0.10" shape="800.73,623.88 800.77,623.81" speed="13.89"/>
   </edge>
   <edge function="internal" id=":1071345197_0">
      <lane disallow="tram rail_urban rail rail_electric ship" id=":1071345197_0_0" index="0" length="0.10" shape="768.04,645.37 768.01,645.38" speed="13.89"/>
      <lane disallow="tram rail_urban rail rail_electric ship" id=":1071345197_0_1" index="1" length="0.10" shape="768.19,648.67 768.19,648.67" speed="13.89"/>
      <lane disallow="tram rail_urban rail rail_electric ship" id=":1071345197_0_2" index="2" length="0.10" shape="768.35,651.97 768.37,651.97" speed="13.89"/>
   </edge>
   <edge function="internal" id=":1071399457_0">
      <lane disallow="tram rail_urban rail rail_electric ship" id=":1071399457_0_0" index="0" length="0.10" shape="365.42,648.57 365.36,648.55" speed="13.89"/>
      <lane disallow="tram rail_urban rail rail_electric ship" id=":1071399457_0_1" index="1" length="0.10" shape="364.65,651.78 364.66,651.78" speed="13.89"/>
   </edge>
   <edge function="internal" id=":1071399460_0">
      <lane disallow="tram rail_urban rail rail_electric ship" id=":1071399460_0_0" index="0" length="0.44" shape="594.47,649.01 595.13,649.04" speed="13.89"/>
      <lane disallow="tram rail_urban rail rail_electric ship" id=":1071399460_0_1" index="1" length="0.44" shape="594.53,652.31 594.75,652.32" speed="13.89"/>
   </edge>
   <edge function="internal" id=":1071399473_0">
      <lane disallow="tram rail_urban rail rail_electric ship" id=":1071399473_0_0" index="0" length="0.42" shape="604.32,675.06 604.31,674.86" speed="13.89"/>
      <lane disallow="tram rail_urban rail rail_electric ship" id=":1071399473_0_1" index="1" length="0.42" shape="607.62,675.19 607.60,674.56" speed="13.89"/>
   </edge>
   <edge function="internal" id=":1071399483_0">
      <lane disallow="tram rail_urban rail rail_electric ship" id=":1071399483_0_0" index="0" length="0.20" shape="618.43,671.52 618.13,671.47" speed="13.89"/>
      <lane disallow="tram rail_urban rail rail_electric ship" id=":1071399483_0_1" index="1" length="0.20" shape="618.94,668.26 618.84,668.24" speed="13.89"/>
   </edge>
   <edge function="internal" id=":1071407099_0">
      <lane disallow="tram rail_urban rail rail_electric ship" id=":1071407099_0_0" index="0" length="5.75" shape="376.43,660.99 376.54,666.74" speed="13.89"/>
   </edge>
   <edge function="internal" id=":1071407099_1">
      <lane disallow="tram rail_urban rail rail_electric ship" id=":1071407099_1_0" index="0" length="2.75" shape="372.72,662.02 374.38,663.20 374.88,663.70" speed="13.89"/>
   </edge>
   <edge function="internal" id=":1071407099_2">
      <lane id=":1071407099_2_0" index="0" length="3.55" shape="374.88,663.70 375.57,664.37 376.29,665.55 376.54,666.74" speed="13.89"/>
   </edge>
   <edge function="internal" id=":1071407109_0">
      <lane disallow="tram rail_urban rail rail_electric ship" id=":1071407109_0_0" index="0" length="1.17" shape="380.89,674.93 378.69,674.47" speed="13.89"/>
      <lane disallow="tram rail_urban rail rail_electric ship" id=":1071407109_0_1" index="1" length="1.17" shape="381.53,671.70 381.55,671.70" speed="13.89"/>
   </edge>
   <edge function="internal" id=":1074706948_0">
      <lane allow="delivery bicycle pedestrian" id=":1074706948_0_0" index="0" length="0.10" shape="471.23,54.84 471.23,54.85" speed="5.56"/>
   </edge>
   <edge function="internal" id=":1074706969_0">
      <lane allow="delivery bicycle pedestrian" id=":1074706969_0_0" index="0" length="0.10" shape="491.63,47.57 491.63,47.57" speed="5.56"/>
   </edge>
   <edge function="internal" id=":1074707003_0">
      <lane allow="delivery bicycle pedestrian" id=":1074707003_0_0" index="0" length="0.10" shape="444.37,47.60 444.37,47.60" speed="5.56"/>
   </edge>
   <edge function="internal" id=":1074707008_0">
      <lane allow="delivery bicycle pedestrian" id=":1074707008_0_0" index="0" length="0.10" shape="443.63,78.54 443.63,78.54" speed="5.56"/>
   </edge>
   <edge function="internal" id=":1074707019_0">
      <lane allow="delivery bicycle pedestrian" id=":1074707019_0_0" index="0" length="0.10" shape="514.07,48.78 514.07,48.78" speed="5.56"/>
   </edge>
   <edge function="internal" id=":1074707021_0">
      <lane disallow="tram rail_urban rail rail_electric ship" id=":1074707021_0_0" index="0" length="4.82" shape="5.84,202.19 4.37,201.99 3.64,201.43 3.65,200.51 4.40,199.23" speed="13.89"/>
   </edge>
   <edge function="internal" id=":1074707029_0">
      <lane allow="delivery bicycle pedestrian" id=":1074707029_0_0" index="0" length="0.10" shape="432.23,46.14 432.24,46.13" speed="5.56"/>
   </edge>
   <edge function="internal" id=":1074707034_0">
      <lane allow="delivery bicycle pedestrian" id=":1074707034_0_0" index="0" length="0.10" shape="463.34,72.79 463.34,72.79" speed="5.56"/>
   </edge>
   <edge function="internal" id=":1074707050_0">
      <lane allow="delivery bicycle pedestrian" id=":1074707050_0_0" index="0" length="0.10" shape="488.43,58.66 488.43,58.66" speed="5.56"/>
   </edge>
   <edge function="internal" id=":1074707070_0">
      <lane allow="delivery bicycle pedestrian" id=":1074707070_0_0" index="0" length="0.57" shape="387.68,77.67 387.14,77.86" speed="5.56"/>
   </edge>
   <edge function="internal" id=":1074707080_0">
      <lane allow="delivery bicycle pedestrian" id=":1074707080_0_0" index="0" length="0.10" shape="480.59,66.83 480.59,66.83" speed="5.56"/>
   </edge>
   <edge function="internal" id=":1074707103_0">
      <lane allow="delivery bicycle pedestrian" id=":1074707103_0_0" index="0" length="0.10" shape="440.71,64.92 440.71,64.92" speed="5.56"/>
   </edge>
   <edge function="internal" id=":1074707142_0">
      <lane allow="delivery bicycle pedestrian" id=":1074707142_0_0" index="0" length="0.10" shape="512.98,53.74 512.98,53.74" speed="5.56"/>
   </edge>
   <edge function="internal" id=":1074707178_0">
      <lane allow="delivery bicycle pedestrian" id=":1074707178_0_0" index="0" length="0.10" shape="455.01,60.29 455.01,60.29" speed="5.56"/>
   </edge>
   <edge function="internal" id=":1074707192_0">
      <lane allow="delivery bicycle pedestrian" id=":1074707192_0_0" index="0" length="0.10" shape="530.35,46.43 530.35,46.43" speed="5.56"/>
   </edge>
   <edge function="internal" id=":1081590031_0">
      <lane disallow="tram rail_urban rail rail_electric ship" id=":1081590031_0_0" index="0" length="5.24" shape="862.13,526.18 860.77,525.60 859.63,525.65 858.70,526.32 857.99,527.61" speed="8.33"/>
   </edge>
   <edge function="internal" id=":1081590031_1">
      <lane disallow="tram rail_urban rail rail_electric ship" id=":1081590031_1_0" index="0" length="6.81" shape="858.81,520.87 854.90,526.46" speed="13.89"/>
   </edge>
   <edge function="internal" id=":1081590074_0">
      <lane disallow="tram rail_urban rail rail_electric ship" id=":1081590074_0_0" index="0" length="0.32" shape="803.12,635.73 802.85,636.13" speed="13.89"/>
      <lane disallow="tram rail_urban rail rail_electric ship" id=":1081590074_0_1" index="1" length="0.32" shape="800.27,634.06 800.18,634.19" speed="13.89"/>
   </edge>
   <edge function="internal" id=":1081590076_0">
      <lane disallow="tram rail_urban rail rail_electric ship" id=":1081590076_0_0" index="0" length="0.10" shape="594.89,666.93 594.97,666.95" speed="13.89"/>
      <lane disallow="tram rail_urban rail rail_electric ship" id=":1081590076_0_1" index="1" length="0.10" shape="595.54,663.70 595.46,663.68" speed="13.89"/>
   </edge>
   <edge function="internal" id=":1081590089_0">
      <lane disallow="tram rail_urban rail rail_electric ship" id=":1081590089_0_0" index="0" length="0.14" shape="853.52,539.58 853.50,539.61" speed="13.89"/>
      <lane disallow="tram rail_urban rail rail_electric ship" id=":1081590089_0_1" index="1" length="0.14" shape="850.48,538.28 850.41,538.45" speed="13.89"/>
   </edge>
   <edge function="internal" id=":1081590094_0">
      <lane disallow="tram rail_urban rail rail_electric ship" id=":1081590094_0_0" index="0" length="0.10" shape="776.15,676.28 776.15,676.28" speed="27.78"/>
      <lane disallow="tram rail_urban rail rail_electric ship" id=":1081590094_0_1" index="1" length="0.10" shape="773.34,674.55 773.37,674.51" speed="27.78"/>
   </edge>
   <edge function="internal" id=":1081590116_0">
      <lane disallow="tram rail_urban rail rail_electric ship" id=":1081590116_0_0" index="0" length="0.26" shape="843.85,562.14 843.68,562.50" speed="13.89"/>
      <lane disallow="tram rail_urban rail rail_electric ship" id=":1081590116_0_1" index="1" length="0.26" shape="840.81,560.84 840.76,560.96" speed="13.89"/>
   </edge>
   <edge function="internal" id=":1201011929_0">
      <lane disallow="tram rail_urban rail rail_electric ship" id=":1201011929_0_0" index="0" length="0.25" shape="798.51,309.84 798.33,310.01" speed="13.89"/>
   </edge>
   <edge function="internal" id=":1201011930_0">
      <lane disallow="tram rail_urban rail rail_electric ship" id=":1201011930_0_0" index="0" length="0.38" shape="900.33,340.53 900.40,340.15" speed="13.89"/>
   </edge>
   <edge function="internal" id=":1201011931_0">
      <lane disallow="tram rail_urban rail rail_electric ship" id=":1201011931_0_0" index="0" length="0.10" shape="913.57,345.72 913.57,345.72" speed="13.89"/>
   </edge>
   <edge function="internal" id=":1201011932_0">
      <lane disallow="tram rail_urban rail rail_electric ship" id=":1201011932_0_0" index="0" length="0.10" shape="919.04,326.89 919.04,326.89" speed="13.89"/>
   </edge>
   <edge function="internal" id=":1201011933_0">
      <lane disallow="tram rail_urban rail rail_electric ship" id=":1201011933_0_0" index="0" length="0.10" shape="905.49,323.94 905.49,323.94" speed="13.89"/>
   </edge>
   <edge function="internal" id=":1201011934_0">
      <lane disallow="tram rail_urban rail rail_electric ship" id=":1201011934_0_0" index="0" length="0.10" shape="806.73,300.73 806.73,300.73" speed="13.89"/>
   </edge>
   <edge function="internal" id=":1215867699_0">
      <lane disallow="tram rail_urban rail rail_electric ship" id=":1215867699_0_0" index="0" length="0.10" shape="921.15,635.62 921.13,635.62" speed="13.89"/>
   </edge>
   <edge function="internal" id=":1215867699_1">
      <lane disallow="tram rail_urban rail rail_electric ship" id=":1215867699_1_0" index="0" length="2.41" shape="921.15,635.62 920.03,634.64 919.74,633.76" speed="13.89"/>
   </edge>
   <edge function="internal" id=":1215867699_4">
      <lane id=":1215867699_4_0" index="0" length="2.41" shape="919.74,633.76 920.26,633.00 921.59,632.35" speed="13.89"/>
   </edge>
   <edge function="internal" id=":1215867699_2">
      <lane disallow="tram rail_urban rail rail_electric ship" id=":1215867699_2_0" index="0" length="0.10" shape="921.63,632.36 921.59,632.35" speed="13.89"/>
   </edge>
   <edge function="internal" id=":1215867699_3">
      <lane disallow="tram rail_urban rail rail_electric ship" id=":1215867699_3_0" index="0" length="2.41" shape="921.63,632.36 922.73,633.36 923.01,634.24" speed="13.89"/>
   </edge>
   <edge function="internal" id=":1215867699_5">
      <lane id=":1215867699_5_0" index="0" length="2.41" shape="923.01,634.24 922.48,634.99 921.13,635.62" speed="13.89"/>
   </edge>
   <edge function="internal" id=":1215867712_0">
      <lane disallow="tram rail_urban rail rail_electric ship" id=":1215867712_0_0" index="0" length="0.32" shape="909.08,633.75 908.77,633.69" speed="13.89"/>
   </edge>
   <edge function="internal" id=":1215867712_1">
      <lane disallow="tram rail_urban rail rail_electric ship" id=":1215867712_1_0" index="0" length="2.41" shape="909.08,633.75 907.98,632.75 907.70,631.87" speed="13.89"/>
   </edge>
   <edge function="internal" id=":1215867712_4">
      <lane id=":1215867712_4_0" index="0" length="2.41" shape="907.70,631.87 908.24,631.12 909.59,630.49" speed="13.89"/>
   </edge>
   <edge function="internal" id=":1215867712_2">
      <lane disallow="tram rail_urban rail rail_electric ship" id=":1215867712_2_0" index="0" length="0.10" shape="909.48,630.47 909.59,630.49" speed="13.89"/>
   </edge>
   <edge function="internal" id=":1215867712_3">
      <lane disallow="tram rail_urban rail rail_electric ship" id=":1215867712_3_0" index="0" length="2.41" shape="909.48,630.47 910.51,631.55 910.74,632.44" speed="13.89"/>
   </edge>
   <edge function="internal" id=":1215867712_5">
      <lane id=":1215867712_5_0" index="0" length="2.41" shape="910.74,632.44 910.16,633.16 908.77,633.69" speed="13.89"/>
   </edge>
   <edge function="internal" id=":1278274997_0">
      <lane disallow="tram rail_urban rail rail_electric ship" id=":1278274997_0_0" index="0" length="0.10" shape="578.98,159.88 578.98,159.88" speed="13.89"/>
   </edge>
   <edge function="internal" id=":128379033_0">
      <lane disallow="tram rail_urban rail rail_electric ship" id=":128379033_0_0" index="0" length="4.82" shape="142.53,125.16 141.09,125.53 140.20,125.28 139.87,124.42 140.09,122.95" speed="8.33"/>
   </edge>
   <edge function="internal" id=":1305780128_0">
      <lane disallow="tram rail_urban rail rail_electric ship" id=":1305780128_0_0" index="0" length="0.21" shape="367.88,96.45 367.60,96.31" speed="13.89"/>
      <lane disallow="tram rail_urban rail rail_electric ship" id=":1305780128_0_1" index="1" length="0.21" shape="369.24,93.44 369.15,93.40" speed="13.89"/>
   </edge>
   <edge function="internal" id=":1305781897_0">
      <lane allow="delivery bicycle pedestrian" id=":1305781897_0_0" index="0" length="0.10" shape="423.87,50.97 423.87,50.97" speed="5.56"/>
   </edge>
   <edge function="internal" id=":1307316432_0">
      <lane disallow="tram rail_urban rail rail_electric ship" id=":1307316432_0_0" index="0" length="0.10" shape="927.04,656.68 927.04,656.68" speed="13.89"/>
   </edge>
   <edge function="internal" id=":1307321972_0">
      <lane disallow="tram rail_urban rail rail_electric ship" id=":1307321972_0_0" index="0" length="2.14" shape="931.13,679.87 930.75,681.97" speed="8.33"/>
   </edge>
   <edge function="internal" id=":1307321972_1">
      <lane disallow="tram rail_urban rail rail_electric ship" id=":1307321972_1_0" index="0" length="2.79" shape="931.13,679.87 930.73,681.54 930.00,682.33" speed="8.33"/>
   </edge>
   <edge function="internal" id=":1307321972_4">
      <lane id=":1307321972_4_0" index="0" length="2.79" shape="930.00,682.33 928.94,682.21 927.54,681.20" speed="8.33"/>
   </edge>
   <edge function="internal" id=":1307321972_2">
      <lane disallow="tram rail_urban rail rail_electric ship" id=":1307321972_2_0" index="0" length="0.10" shape="927.54,681.20 927.54,681.20" speed="8.33"/>
   </edge>
   <edge function="internal" id=":1307321972_3">
      <lane disallow="tram rail_urban rail rail_electric ship" id=":1307321972_3_0" index="0" length="2.41" shape="927.54,681.20 928.63,680.19 929.53,679.98" speed="8.33"/>
   </edge>
   <edge function="internal" id=":1307321972_5">
      <lane id=":1307321972_5_0" index="0" length="2.41" shape="929.53,679.98 930.24,680.58 930.75,681.97" speed="8.33"/>
   </edge>
   <edge function="internal" id=":1409407500_0">
      <lane disallow="tram rail_urban rail rail_electric ship" id=":1409407500_0_0" index="0" length="0.10" shape="280.66,262.87 280.70,262.85" speed="13.89"/>
   </edge>
   <edge function="internal" id=":1409407500_1">
      <lane disallow="tram rail_urban rail rail_electric ship" id=":1409407500_1_0" index="0" length="2.41" shape="280.66,262.87 279.22,262.52 278.55,261.88" speed="13.89"/>
   </edge>
   <edge function="internal" id=":1409407500_4">
      <lane id=":1409407500_4_0" index="0" length="2.41" shape="278.55,261.88 278.65,260.97 279.53,259.77" speed="13.89"/>
   </edge>
   <edge function="internal" id=":1409407500_2">
      <lane disallow="tram rail_urban rail rail_electric ship" id=":1409407500_2_0" index="0" length="0.10" shape="279.52,259.77 279.53,259.77" speed="13.89"/>
   </edge>
   <edge function="internal" id=":1409407500_3">
      <lane disallow="tram rail_urban rail rail_electric ship" id=":1409407500_3_0" index="0" length="2.41" shape="279.52,259.77 280.97,260.10 281.65,260.72" speed="13.89"/>
   </edge>
   <edge function="internal" id=":1409407500_5">
      <lane id=":1409407500_5_0" index="0" length="2.41" shape="281.65,260.72 281.56,261.64 280.70,262.85" speed="13.89"/>
   </edge>
   <edge function="internal" id=":1411715914_0">
      <lane allow="delivery bicycle pedestrian" id=":1411715914_0_0" index="0" length="4.82" shape="770.47,752.87 769.31,753.81 768.40,753.96 767.74,753.32 767.31,751.90" speed="5.56"/>
   </edge>
   <edge function="internal" id=":1414569371_0">
      <lane disallow="tram rail_urban rail rail_electric ship" id=":1414569371_0_0" index="0" length="0.10" shape="860.53,776.35 860.53,776.35" speed="13.89"/>
   </edge>
   <edge function="internal" id=":1414569371_1">
      <lane disallow="tram rail_urban rail rail_electric ship" id=":1414569371_1_0" index="0" length="2.41" shape="860.53,776.35 859.51,777.44 858.63,777.71" speed="13.89"/>
   </edge>
   <edge function="internal" id=":1414569371_4">
      <lane id=":1414569371_4_0" index="0" length="2.41" shape="858.63,777.71 857.89,777.17 857.27,775.82" speed="13.89"/>
   </edge>
   <edge function="internal" id=":1414569371_2">
      <lane disallow="tram rail_urban rail rail_electric ship" id=":1414569371_2_0" index="0" length="0.10" shape="857.27,775.82 857.27,775.82" speed="13.89"/>
   </edge>
   <edge function="internal" id=":1414569371_3">
      <lane disallow="tram rail_urban rail rail_electric ship" id=":1414569371_3_0" index="0" length="2.41" shape="857.27,775.82 858.29,774.73 859.17,774.46" speed="13.89"/>
   </edge>
   <edge function="internal" id=":1414569371_5">
      <lane id=":1414569371_5_0" index="0" length="2.41" shape="859.17,774.46 859.91,775.00 860.53,776.35" speed="13.89"/>
   </edge>
   <edge function="internal" id=":1414569373_0">
      <lane disallow="tram rail_urban rail rail_electric ship" id=":1414569373_0_0" index="0" length="0.10" shape="862.29,765.57 862.29,765.56" speed="13.89"/>
   </edge>
   <edge function="internal" id=":1414569373_1">
      <lane disallow="tram rail_urban rail rail_electric ship" id=":1414569373_1_0" index="0" length="2.41" shape="862.29,765.57 861.27,766.65 860.39,766.92" speed="13.89"/>
   </edge>
   <edge function="internal" id=":1414569373_4">
      <lane id=":1414569373_4_0" index="0" length="2.41" shape="860.39,766.92 859.64,766.37 859.04,765.02" speed="13.89"/>
   </edge>
   <edge function="internal" id=":1414569373_2">
      <lane disallow="tram rail_urban rail rail_electric ship" id=":1414569373_2_0" index="0" length="0.10" shape="859.04,765.02 859.04,765.02" speed="13.89"/>
   </edge>
   <edge function="internal" id=":1414569373_3">
      <lane disallow="tram rail_urban rail rail_electric ship" id=":1414569373_3_0" index="0" length="2.41" shape="859.04,765.02 860.05,763.93 860.94,763.66" speed="13.89"/>
   </edge>
   <edge function="internal" id=":1414569373_5">
      <lane id=":1414569373_5_0" index="0" length="2.41" shape="860.94,763.66 861.68,764.20 862.29,765.56" speed="13.89"/>
   </edge>
   <edge function="internal" id=":1414569689_0">
      <lane disallow="tram rail_urban rail rail_electric ship" id=":1414569689_0_0" index="0" length="0.10" shape="770.00,837.56 769.99,837.56" speed="8.33"/>
   </edge>
   <edge function="internal" id=":1414569689_1">
      <lane disallow="tram rail_urban rail rail_electric ship" id=":1414569689_1_0" index="0" length="2.41" shape="770.00,837.56 768.95,836.50 768.72,835.61" speed="8.33"/>
   </edge>
   <edge function="internal" id=":1414569689_4">
      <lane id=":1414569689_4_0" index="0" length="2.41" shape="768.72,835.61 769.29,834.88 770.67,834.33" speed="8.33"/>
   </edge>
   <edge function="internal" id=":1414569689_2">
      <lane disallow="tram rail_urban rail rail_electric ship" id=":1414569689_2_0" index="0" length="0.10" shape="770.71,834.34 770.67,834.33" speed="8.33"/>
   </edge>
   <edge function="internal" id=":1414569689_3">
      <lane disallow="tram rail_urban rail rail_electric ship" id=":1414569689_3_0" index="0" length="2.41" shape="770.71,834.34 771.74,835.41 771.96,836.31" speed="8.33"/>
   </edge>