<?xml version="1.0" encoding="utf-8"?><!-- generated on 10/11/17 17:49:51 by SUMO polyconvert Version 0.25.0
<?xml version="1.0" encoding="UTF-8"?>

<configuration xmlns:xsi="http://www.w3.org/2001/XMLSchema-instance" xsi:noNamespaceSchemaLocation="http://sumo.dlr.de/xsd/polyconvertConfiguration.xsd">

    <input>
        <net-file value="BN_Altstadt_historical_800.net.xml"/>
        <osm-files value="BN_Altstadt_historical_800.osm"/>
        <type-file value="osmPolyconvert.typ.xml"/>
    </input>

    <output>
        <output-file value="BN_Altstadt_historical_800.poly.xml"/>
    </output>

    <projection>
        <proj.utm value="true"/>
    </projection>

    <processing>
        <poi-layer-offset value="5"/>
    </processing>

</configuration>
-->
<additional>
   <location convBoundary="-8.46,-2.69,945.91,937.98" netOffset="-365405.61,-5621685.96" origBoundary="7.092600,50.731500,7.105895,50.739800" projParameter="+proj=utm +zone=32 +ellps=WGS84 +datum=WGS84 +units=m +no_defs"/>
   <poly color="red" fill="1" id="100321204" layer="-1.00" shape="890.65,462.53 894.17,450.45 903.17,453.09 902.35,455.88 910.59,459.67 905.96,469.62 890.65,462.53" type="building"/>
   <poly color="207,245,201" fill="1" id="102199952" layer="-2.00" shape="920.08,287.10 926.83,271.63 665.08,100.84 651.87,111.93 688.16,156.35 661.51,178.96 671.10,190.14 668.03,193.00 695.22,224.68 696.29,223.80 702.88,231.34 709.73,239.20 708.27,240.36 737.61,274.85 746.42,267.74 755.31,278.15 776.42,260.07 802.72,288.38 811.04,296.11 903.49,320.51 903.93,320.42 907.39,310.73 920.08,287.10" type="tourism"/>
   <poly color="207,245,201" fill="1" id="102199953" layer="-2.00" shape="925.01,326.87 926.14,322.89 925.01,326.87" type="tourism"/>
   <poly color="red" fill="1" id="103124432" layer="-1.00" shape="698.03,908.58 697.42,913.18 694.33,912.75 694.90,908.10 692.71,907.86 693.05,899.43 693.71,892.85 693.91,890.99 695.23,883.17 696.82,876.95 696.98,876.63 697.29,876.27 697.75,875.93 698.32,875.73 698.76,875.69 699.18,875.74 699.86,873.26 700.42,872.43 701.24,871.96 702.28,871.91 703.70,867.31 703.02,866.96 702.64,866.54 702.44,866.17 702.28,865.57 702.35,865.08 703.50,861.47 706.02,854.28 706.46,853.04 709.41,845.49 716.11,828.84 716.52,827.96 717.35,826.98 717.87,826.52 718.61,826.01 719.52,825.57 720.56,825.29 721.55,825.19 722.82,825.31 755.52,836.13 755.25,837.02 750.93,850.12 727.50,840.69 724.60,847.60 721.78,854.93 719.26,861.98 716.41,870.37 716.32,870.59 715.94,871.26 715.35,871.72 714.61,871.91 713.80,871.74 712.78,875.07 711.52,874.70 711.14,876.03 712.29,876.60 713.03,877.48 713.41,878.51 713.29,879.82 711.10,888.47 710.03,893.49 708.39,902.11 707.28,909.81 698.03,908.58" type="building"/>
   <poly color="red" fill="1" id="104891639" layer="-1.00" shape="665.39,740.67 666.83,717.87 651.10,717.11 651.83,705.61 663.08,705.47 661.93,688.93 650.81,689.66 615.99,689.87 615.69,712.27 617.43,712.37 616.87,739.10 665.39,740.67" type="building"/>
   <poly color="red" fill="1" id="104891640" layer="-1.00" shape="699.87,739.01 692.83,772.65 685.34,793.37 686.87,794.15 684.06,802.34 703.09,809.97 706.04,802.24 714.66,780.33 723.15,757.49 726.78,747.37 699.87,739.01" type="building"/>
   <poly color="red" fill="1" id="104892099" layer="-1.00" shape="661.04,834.82 665.50,818.43 678.86,822.09 671.71,837.69 661.04,834.82" type="building"/>
   <poly color="red" fill="1" id="104892101" layer="-1.00" shape="604.95,787.05 602.37,787.25 585.07,817.35 583.90,817.08 580.34,830.10 620.44,839.53 661.81,850.46 676.36,854.04 679.52,852.75 695.43,820.16 694.60,814.60 681.07,808.91 635.12,796.17 626.54,827.09 619.42,825.05 622.36,812.02 605.38,809.14 611.87,802.43 615.46,790.29 604.95,787.05" type="building"/>
   <poly color="red" fill="1" id="104892106" layer="-1.00" shape="627.53,827.22 628.92,821.99 639.08,824.67 642.45,811.95 661.05,816.85 656.52,833.93 646.20,831.20 646.74,829.18 641.73,827.85 640.96,830.76 627.53,827.22" type="building"/>
   <poly color="red" fill="1" id="104894148" layer="-1.00" shape="827.01,841.69 828.28,835.11 833.90,835.94 832.57,842.80 827.01,841.69" type="building"/>
   <poly color="red" fill="1" id="104894149" layer="-1.00" shape="851.58,847.09 852.62,838.26 862.54,839.46 862.15,843.00 861.56,848.19 861.53,848.29 851.58,847.09" type="building"/>
   <poly color="red" fill="1" id="104894388" layer="-1.00" shape="810.99,743.84 813.01,733.03 818.17,734.00 819.64,734.29 822.96,734.92 821.15,744.74 820.95,745.73 810.99,743.84" type="building"/>
   <poly color="red" fill="1" id="105586262" layer="-1.00" shape="857.43,592.13 857.28,591.77 856.22,592.16 850.77,603.01 848.18,601.70 845.22,607.52 843.88,606.85 843.69,607.31 837.54,604.16 836.75,605.76 833.88,610.71 829.10,608.68 829.83,606.98 829.63,606.60 829.50,606.23 829.39,605.64 829.44,605.10 829.53,604.74 829.75,604.20 830.07,603.78 830.47,603.40 830.95,603.12 831.57,602.92 832.22,601.41 832.02,601.30 848.88,568.03 852.01,567.04 865.69,573.90 874.74,578.00 877.76,579.17 887.89,582.75 897.62,585.31 903.45,586.50 925.35,589.68 927.32,592.23 923.41,621.88 923.08,621.85 923.03,622.16 909.15,620.12 909.52,617.24 904.64,616.59 903.47,616.22 903.25,616.11 902.59,615.81 902.06,615.48 901.76,615.29 901.33,614.95 900.99,614.68 900.45,614.14 899.70,613.18 899.16,612.29 899.08,612.16 898.72,611.32 898.68,611.17 898.41,610.21 898.19,608.69 898.46,605.84 894.63,605.13 881.45,601.67 868.58,597.10 857.43,592.13" type="building"/>
   <poly color="red" fill="0" id="107632078" layer="-1.00" shape="866.11,911.02 866.17,911.11 866.53,908.30 871.19,908.90 879.59,910.07 879.24,912.73" type="building"/>
   <poly color="207,245,201" fill="0" id="107632078#1" layer="-2.00" shape="866.11,911.02 866.17,911.11 866.53,908.30 871.19,908.90 879.59,910.07 879.24,912.73" type="leisure"/>
   <poly color="79,230,125" fill="0" id="107632078#2" layer="-2.00" shape="866.11,911.02 866.17,911.11 866.53,908.30 871.19,908.90 879.59,910.07 879.24,912.73" type="sport"/>
   <poly color="237,199,199" fill="0" id="107632079" layer="-1.00" shape="812.70,917.12 812.73,917.00 821.69,917.30 821.73,916.26 826.56,916.41 826.52,917.47 835.52,917.76 835.60,914.75 843.43,915.09" type="amenity"/>
   <poly color="red" fill="0" id="107632079#1" layer="-1.00" shape="812.70,917.12 812.73,917.00 821.69,917.30 821.73,916.26 826.56,916.41 826.52,917.47 835.52,917.76 835.60,914.75 843.43,915.09" type="building"/>
   <poly color="237,199,199" fill="1" id="107632326" layer="-1.00" shape="816.98,884.66 821.20,885.24 845.44,888.61 864.71,891.29 863.71,898.13 863.39,900.40 862.39,908.20 882.36,910.80 812.84,916.88 816.98,884.66" type="amenity"/>
   <poly color="red" fill="1" id="107632327" layer="-1.00" shape="844.58,894.60 845.44,888.61 864.71,891.29 863.80,897.36 844.58,894.60" type="building"/>
   <poly color="red" fill="1" id="108830685" layer="-1.00" shape="816.44,576.66 806.72,571.53 809.05,567.11 806.58,566.26 806.59,566.16 809.35,558.16 813.09,559.46 816.00,553.94 825.74,559.04 816.44,576.66" type="building"/>
   <poly color="237,199,255" fill="1" id="108830685#1" layer="-1.00" shape="816.44,576.66 806.72,571.53 809.05,567.11 806.58,566.26 806.59,566.16 809.35,558.16 813.09,559.46 816.00,553.94 825.74,559.04 816.44,576.66" type="shop"/>
   <poly color="red" fill="1" id="108830686" layer="-1.00" shape="777.74,601.58 780.13,593.70 787.13,596.36 786.16,598.49 789.39,600.90 789.22,601.12 787.76,603.00 785.47,601.13 783.91,603.06 783.77,603.03 782.40,604.72 777.74,601.58" type="building"/>
   <poly color="red" fill="1" id="108830687" layer="-1.00" shape="793.12,561.61 795.90,553.45 796.43,551.95 809.90,556.51 809.35,558.16 806.59,566.16 806.58,566.26 793.12,561.61" type="building"/>
   <poly color="red" fill="1" id="108830688" layer="-1.00" shape="796.55,614.03 794.17,614.48 789.38,610.22 789.29,610.33 786.98,608.48 787.07,608.35 789.89,604.90 791.82,605.44 799.84,607.75 796.55,614.03" type="building"/>
   <poly color="red" fill="0" id="108830689" layer="-1.00" shape="805.06,597.99 793.32,593.55 805.40,570.86 806.72,571.53 816.44,576.66 805.12,598.03" type="building"/>
   <poly color="red" fill="1" id="108830690" layer="-1.00" shape="782.40,604.72 783.77,603.03 783.91,603.06 785.47,601.13 787.76,603.00 788.69,603.77 788.39,604.48 789.89,604.90 787.07,608.35 782.40,604.72" type="building"/>
   <poly color="red" fill="1" id="109379928" layer="-1.00" shape="174.70,77.43 177.10,76.18 176.53,75.09 196.15,64.83 216.45,54.22 216.98,55.22 219.05,54.14 224.66,64.83 222.53,65.94 223.28,67.37 183.51,88.18 182.98,87.19 180.52,88.48 174.70,77.43" type="building"/>
   <poly color="207,245,201" fill="1" id="109379928#1" layer="-2.00" shape="174.70,77.43 177.10,76.18 176.53,75.09 196.15,64.83 216.45,54.22 216.98,55.22 219.05,54.14 224.66,64.83 222.53,65.94 223.28,67.37 183.51,88.18 182.98,87.19 180.52,88.48 174.70,77.43" type="tourism"/>
   <poly color="red" fill="1" id="112477021" layer="-1.00" shape="451.28,225.88 451.07,224.79 450.54,224.88 450.46,224.46 451.00,224.35 450.02,219.08 455.01,218.16 455.80,222.58 455.42,222.53 455.08,222.49 454.79,222.49 454.53,222.54 454.27,222.61 454.05,222.71 453.77,222.87 453.54,223.06 453.41,223.21 453.23,223.45 453.11,223.65 453.03,223.83 452.95,224.10 452.89,224.45 452.91,224.76 452.95,225.03 453.02,225.27 453.18,225.51 451.28,225.88" type="building"/>
   <poly color="red" fill="1" id="112477022" layer="-1.00" shape="449.48,219.15 449.40,218.74 449.95,218.64 449.38,215.70 448.84,215.80 448.76,215.37 449.31,215.26 449.10,214.17 457.82,212.59 458.67,217.51 455.01,218.16 450.02,219.08 449.48,219.15" type="building"/>
   <poly color="red" fill="1" id="112477024" layer="-1.00" shape="448.54,214.25 445.30,197.21 445.19,197.24 443.52,188.74 453.74,186.40 453.82,186.78 453.05,186.93 457.25,209.84 457.27,210.03 457.79,212.51 449.10,214.17 448.54,214.25" type="building"/>
   <poly color="red" fill="1" id="112477025" layer="-1.00" shape="492.85,206.29 489.40,206.91 487.90,208.30 487.11,204.38 486.28,204.60 486.15,203.95 486.97,203.74 486.18,199.90 485.41,200.14 485.26,199.40 486.05,199.23 485.26,195.39 484.52,195.54 484.39,194.95 485.12,194.73 484.55,191.96 483.84,192.10 483.73,191.56 484.45,191.32 482.24,180.91 485.30,180.03 485.93,179.88 490.44,179.00 496.48,177.99 500.53,200.26 501.19,200.36 501.76,200.60 502.15,200.88 502.65,201.39 502.94,202.08 503.08,202.79 502.93,203.57 502.70,204.10 502.37,204.53 501.86,204.97 501.36,205.20 502.09,209.12 502.89,213.42 503.34,215.83 498.82,216.68 498.72,216.04 498.40,216.14 497.79,212.35 498.40,212.19 498.15,209.88 497.40,210.02 496.11,207.72 492.85,206.29" type="building"/>
   <poly color="207,245,201" fill="1" id="112526691" layer="-2.00" shape="463.38,216.70 476.54,214.41 485.55,212.84 486.90,209.26 487.90,208.30 487.12,204.50 486.25,204.66 486.09,203.89 486.97,203.73 486.22,200.02 485.31,200.17 485.15,199.30 486.04,199.12 485.86,198.20 485.30,195.38 484.48,195.57 484.32,194.82 485.14,194.60 484.63,192.00 483.82,192.15 483.72,191.46 484.47,191.34 483.55,187.16 459.26,192.30 459.92,195.50 460.57,195.36 460.72,196.07 459.89,196.21 460.49,199.80 461.32,199.71 461.50,200.49 460.63,200.65 461.03,202.99 461.28,204.43 462.12,204.29 462.25,205.04 461.40,205.18 462.03,208.88 462.80,208.75 462.99,209.47 462.15,209.63 462.89,213.73 463.15,213.73 463.32,214.67 463.03,214.73 463.38,216.70" type="tourism"/>
   <poly color="237,199,199" fill="1" id="112526702" layer="-1.00" shape="455.32,238.06 454.98,237.14 455.10,236.58 451.78,237.15 450.79,231.69 449.77,226.18 451.28,225.88 453.18,225.51 453.02,225.27 452.95,225.03 452.91,224.76 452.89,224.45 452.95,224.10 453.03,223.83 453.11,223.65 453.23,223.45 453.41,223.21 453.54,223.06 453.77,222.87 454.05,222.71 454.27,222.61 454.53,222.54 454.79,222.49 455.08,222.49 455.42,222.53 455.80,222.58 455.01,218.16 458.67,217.51 460.86,217.14 463.38,216.70 476.54,214.41 485.55,212.84 486.90,209.26 487.90,208.30 489.40,206.91 492.85,206.29 496.11,207.72 497.40,210.04 498.15,209.88 498.40,212.19 497.78,212.34 498.12,214.42 498.39,216.16 498.72,216.04 498.81,216.71 513.59,213.93 513.70,213.36 514.32,212.51 515.12,212.15 514.43,208.92 520.56,207.59 521.67,212.75 523.38,213.22 524.50,213.85 525.15,214.38 525.62,214.86 526.11,215.49 526.55,216.27 526.87,217.09 527.06,217.87 527.18,218.81 527.07,219.95 526.79,221.04 526.28,222.14 525.50,223.15 524.27,224.21 525.39,229.23 519.31,230.40 518.61,226.72 517.38,226.06 503.76,228.27 501.09,228.69 501.18,229.26 500.99,229.29 501.62,233.19 502.32,233.07 502.66,235.03 502.69,235.28 502.15,235.32 501.69,237.98 499.08,240.54 495.73,241.13 492.44,239.64 490.68,236.64 490.29,236.71 490.24,236.56 483.78,237.94 483.84,238.23 482.70,238.45 482.62,238.15 476.39,239.33 476.44,239.61 467.81,241.25 467.75,240.94 460.65,242.27 460.70,242.56 459.52,242.78 458.67,238.22 457.95,238.78 457.10,239.03 456.28,238.85 455.73,238.52 455.32,238.06" type="amenity"/>
   <poly color="red" fill="1" id="112526702#1" layer="-1.00" shape="455.32,238.06 454.98,237.14 455.10,236.58 451.78,237.15 450.79,231.69 449.77,226.18 451.28,225.88 453.18,225.51 453.02,225.27 452.95,225.03 452.91,224.76 452.89,224.45 452.95,224.10 453.03,223.83 453.11,223.65 453.23,223.45 453.41,223.21 453.54,223.06 453.77,222.87 454.05,222.71 454.27,222.61 454.53,222.54 454.79,222.49 455.08,222.49 455.42,222.53 455.80,222.58 455.01,218.16 458.67,217.51 460.86,217.14 463.38,216.70 476.54,214.41 485.55,212.84 486.90,209.26 487.90,208.30 489.40,206.91 492.85,206.29 496.11,207.72 497.40,210.04 498.15,209.88 498.40,212.19 497.78,212.34 498.12,214.42 498.39,216.16 498.72,216.04 498.81,216.71 513.59,213.93 513.70,213.36 514.32,212.51 515.12,212.15 514.43,208.92 520.56,207.59 521.67,212.75 523.38,213.22 524.50,213.85 525.15,214.38 525.62,214.86 526.11,215.49 526.55,216.27 526.87,217.09 527.06,217.87 527.18,218.81 527.07,219.95 526.79,221.04 526.28,222.14 525.50,223.15 524.27,224.21 525.39,229.23 519.31,230.40 518.61,226.72 517.38,226.06 503.76,228.27 501.09,228.69 501.18,229.26 500.99,229.29 501.62,233.19 502.32,233.07 502.66,235.03 502.69,235.28 502.15,235.32 501.69,237.98 499.08,240.54 495.73,241.13 492.44,239.64 490.68,236.64 490.29,236.71 490.24,236.56 483.78,237.94 483.84,238.23 482.70,238.45 482.62,238.15 476.39,239.33 476.44,239.61 467.81,241.25 467.75,240.94 460.65,242.27 460.70,242.56 459.52,242.78 458.67,238.22 457.95,238.78 457.10,239.03 456.28,238.85 455.73,238.52 455.32,238.06" type="building"/>
   <poly color="red" fill="1" id="112530632" layer="-1.00" shape="455.22,177.22 451.22,178.05 450.99,176.63 446.42,177.94 446.60,178.66 441.22,180.29 438.32,169.65 438.49,167.31 440.08,165.59 442.28,165.24 448.97,166.53 461.77,169.33 460.49,175.58 462.32,175.81 464.06,184.67 457.59,186.00 456.20,180.91 455.22,177.22" type="building"/>
   <poly color="red" fill="1" id="112530636" layer="-1.00" shape="463.50,181.75 462.32,175.81 460.49,175.57 461.77,169.33 478.15,173.41 479.14,175.24 478.65,177.27 476.69,178.49 475.54,178.27 475.40,179.38 463.50,181.75" type="building"/>
   <poly color="237,199,255" fill="1" id="112530636#1" layer="-1.00" shape="463.50,181.75 462.32,175.81 460.49,175.57 461.77,169.33 478.15,173.41 479.14,175.24 478.65,177.27 476.69,178.49 475.54,178.27 475.40,179.38 463.50,181.75" type="shop"/>
   <poly color="red" fill="1" id="113691570" layer="-1.00" shape="130.68,21.28 130.69,20.55 126.87,20.50 126.96,14.12 122.11,14.04 138.84,15.85 138.58,15.90 138.50,21.39 133.60,21.34 130.68,21.28" type="building"/>
   <poly color="237,199,199" fill="1" id="113983911" layer="-1.00" shape="101.81,510.29 103.23,503.23 102.98,503.17 103.08,502.69 103.33,502.73 103.67,501.06 103.42,501.02 104.10,497.93 103.19,497.76 103.37,496.88 103.50,496.89 104.02,494.35 103.89,494.30 104.07,493.45 104.20,493.47 106.12,484.05 105.99,484.01 106.17,483.15 106.30,483.17 108.22,473.75 108.09,473.71 108.28,472.77 108.41,472.80 110.31,463.45 110.19,463.41 110.36,462.55 110.49,462.58 112.88,450.79 112.76,450.75 112.94,449.89 113.07,449.91 113.15,449.50 113.44,449.54 114.32,445.22 117.36,430.57 133.38,434.42 131.20,445.22 129.82,452.01 126.52,468.26 124.98,475.89 123.82,491.89 121.39,492.03 116.50,491.05 113.26,507.51 117.95,508.45 117.57,510.39 117.76,510.44 116.10,518.78 110.55,517.56 111.61,512.33 101.81,510.29" type="amenity"/>
   <poly color="red" fill="1" id="113983911#1" layer="-1.00" shape="101.81,510.29 103.23,503.23 102.98,503.17 103.08,502.69 103.33,502.73 103.67,501.06 103.42,501.02 104.10,497.93 103.19,497.76 103.37,496.88 103.50,496.89 104.02,494.35 103.89,494.30 104.07,493.45 104.20,493.47 106.12,484.05 105.99,484.01 106.17,483.15 106.30,483.17 108.22,473.75 108.09,473.71 108.28,472.77 108.41,472.80 110.31,463.45 110.19,463.41 110.36,462.55 110.49,462.58 112.88,450.79 112.76,450.75 112.94,449.89 113.07,449.91 113.15,449.50 113.44,449.54 114.32,445.22 117.36,430.57 133.38,434.42 131.20,445.22 129.82,452.01 126.52,468.26 124.98,475.89 123.82,491.89 121.39,492.03 116.50,491.05 113.26,507.51 117.95,508.45 117.57,510.39 117.76,510.44 116.10,518.78 110.55,517.56 111.61,512.33 101.81,510.29" type="building"/>
   <poly color="red" fill="1" id="113983912" layer="-1.00" shape="75.62,487.69 78.73,482.34 81.19,478.12 83.89,474.31 84.93,472.87 92.12,464.30 96.02,465.09 97.28,469.18 96.59,472.52 97.39,472.67 97.19,473.66 97.07,473.65 96.56,476.18 96.67,476.23 96.47,477.20 96.36,477.18 95.84,479.71 95.96,479.75 95.76,480.73 95.64,480.72 95.12,483.25 95.24,483.29 95.04,484.27 94.92,484.25 94.41,486.78 94.53,486.82 94.35,487.64 94.24,487.63 93.69,490.34 93.81,490.38 93.60,491.36 75.62,487.69" type="building"/>
   <poly color="207,245,201" fill="1" id="113983912#1" layer="-2.00" shape="75.62,487.69 78.73,482.34 81.19,478.12 83.89,474.31 84.93,472.87 92.12,464.30 96.02,465.09 97.28,469.18 96.59,472.52 97.39,472.67 97.19,473.66 97.07,473.65 96.56,476.18 96.67,476.23 96.47,477.20 96.36,477.18 95.84,479.71 95.96,479.75 95.76,480.73 95.64,480.72 95.12,483.25 95.24,483.29 95.04,484.27 94.92,484.25 94.41,486.78 94.53,486.82 94.35,487.64 94.24,487.63 93.69,490.34 93.81,490.38 93.60,491.36 75.62,487.69" type="tourism"/>
   <poly color="235,235,227" fill="0" id="114331837" layer="-3.00" shape="163.74,60.94 138.42,70.47 139.00,122.40 124.24,130.43 14.73,188.53" type="residential"/>
   <poly color="red" fill="1" id="123651280" layer="-1.00" shape="717.65,474.23 718.98,471.28 721.18,466.35 721.35,466.04 730.81,470.31 737.34,473.19 732.05,484.65 726.61,482.39 728.12,479.06 717.65,474.23" type="building"/>
   <poly color="red" fill="1" id="123651281" layer="-1.00" shape="482.61,631.44 482.05,628.11 481.05,626.05 480.68,622.94 480.97,619.60 481.64,615.98 484.68,612.21 488.33,609.74 492.40,608.26 527.45,610.38 526.92,622.47 503.85,621.38 503.97,626.09 502.63,625.97 502.57,629.33 482.61,631.44" type="building"/>
   <poly color="red" fill="1" id="123651282" layer="-1.00" shape="738.61,482.65 754.06,489.20 760.37,473.78 745.43,467.10 738.61,482.65" type="building"/>
   <poly color="207,245,201" fill="1" id="123651282#1" layer="-2.00" shape="738.61,482.65 754.06,489.20 760.37,473.78 745.43,467.10 738.61,482.65" type="leisure"/>
   <poly color="red" fill="1" id="123651283" layer="-1.00" shape="766.91,496.74 763.91,503.65 759.41,501.73 759.90,500.58 758.87,500.14 758.86,500.24 758.41,501.28 758.35,501.36 754.88,499.87 756.86,495.29 756.24,495.02 757.25,492.44 766.91,496.74" type="building"/>
   <poly color="red" fill="1" id="123651284" layer="-1.00" shape="742.69,460.41 737.34,473.19 732.05,484.65 756.24,495.02 757.25,492.44 766.78,471.16 753.20,465.11 742.69,460.41" type="building"/>
   <poly color="237,199,199" fill="1" id="123651354" layer="-1.00" shape="619.34,543.62 619.31,545.00 618.27,544.97 618.30,543.60 614.74,543.53 614.71,544.91 613.66,544.89 613.68,543.50 610.71,543.41 610.58,551.13 603.44,550.98 603.51,543.21 603.04,543.21 603.06,542.21 603.91,542.21 603.96,538.57 603.09,538.56 603.11,537.56 603.98,537.56 604.04,530.42 603.17,530.40 603.18,529.39 604.07,529.40 604.10,525.77 603.21,525.76 603.23,524.76 603.68,524.75 603.74,517.05 604.81,517.04 611.11,517.12 611.14,517.38 610.99,524.89 613.98,524.93 614.01,523.54 615.04,523.57 615.01,524.96 618.59,525.02 618.63,523.64 619.66,523.65 619.63,525.05 623.25,525.12 623.28,523.72 624.28,523.75 624.26,525.14 627.84,525.22 627.88,523.82 629.00,523.83 629.04,523.51 641.14,523.75 640.97,532.69 641.20,533.48 641.34,534.50 641.24,535.58 641.04,536.42 640.90,536.78 640.73,545.75 628.60,545.51 628.62,545.18 627.47,545.17 627.49,543.78 623.93,543.71 623.91,545.09 622.87,545.08 622.90,543.68 619.34,543.62" type="amenity"/>
   <poly color="red" fill="1" id="123651354#1" layer="-1.00" shape="619.34,543.62 619.31,545.00 618.27,544.97 618.30,543.60 614.74,543.53 614.71,544.91 613.66,544.89 613.68,543.50 610.71,543.41 610.58,551.13 603.44,550.98 603.51,543.21 603.04,543.21 603.06,542.21 603.91,542.21 603.96,538.57 603.09,538.56 603.11,537.56 603.98,537.56 604.04,530.42 603.17,530.40 603.18,529.39 604.07,529.40 604.10,525.77 603.21,525.76 603.23,524.76 603.68,524.75 603.74,517.05 604.81,517.04 611.11,517.12 611.14,517.38 610.99,524.89 613.98,524.93 614.01,523.54 615.04,523.57 615.01,524.96 618.59,525.02 618.63,523.64 619.66,523.65 619.63,525.05 623.25,525.12 623.28,523.72 624.28,523.75 624.26,525.14 627.84,525.22 627.88,523.82 629.00,523.83 629.04,523.51 641.14,523.75 640.97,532.69 641.20,533.48 641.34,534.50 641.24,535.58 641.04,536.42 640.90,536.78 640.73,545.75 628.60,545.51 628.62,545.18 627.47,545.17 627.49,543.78 623.93,543.71 623.91,545.09 622.87,545.08 622.90,543.68 619.34,543.62" type="building"/>
   <poly color="red" fill="1" id="123651444" layer="-1.00" shape="605.49,604.04 605.27,597.06 616.37,596.48 616.45,600.35 630.37,600.06 630.44,603.93 624.46,603.89 620.60,603.72 617.92,603.60 616.61,603.64 605.49,604.04" type="building"/>
   <poly color="128,255,128" fill="1" id="123651444#1" layer="-1.00" shape="605.49,604.04 605.27,597.06 616.37,596.48 616.45,600.35 630.37,600.06 630.44,603.93 624.46,603.89 620.60,603.72 617.92,603.60 616.61,603.64 605.49,604.04" type="historic"/>
   <poly color="207,245,201" fill="1" id="123651444#2" layer="-2.00" shape="605.49,604.04 605.27,597.06 616.37,596.48 616.45,600.35 630.37,600.06 630.44,603.93 624.46,603.89 620.60,603.72 617.92,603.60 616.61,603.64 605.49,604.04" type="tourism"/>
   <poly color="red" fill="1" id="123890490" layer="-1.00" shape="401.22,787.87 401.11,787.89 397.75,778.36 397.84,778.32 394.61,768.87 404.03,765.57 407.47,764.39 410.73,773.96 410.88,773.91 414.14,783.45 413.99,783.51 419.43,799.46 412.92,801.68 413.93,804.60 407.47,806.84 407.15,805.89 407.03,805.92 404.44,798.05 404.56,798.00 401.22,787.87" type="building"/>
   <poly color="237,199,199" fill="1" id="123890491" layer="-1.00" shape="433.51,810.41 411.25,817.74 390.94,759.79 387.33,747.11 418.18,736.50 422.56,756.73 433.51,810.41" type="amenity"/>
   <poly color="237,199,199" fill="1" id="123951712" layer="-1.00" shape="327.90,736.07 336.83,755.23 342.87,753.13 344.50,757.79 346.27,757.18 345.07,739.85 348.62,739.62 348.19,732.95 349.37,732.92 348.53,720.03 348.44,720.11 346.79,720.13 346.73,719.28 336.00,720.06 336.23,723.15 327.90,736.07" type="amenity"/>
   <poly color="red" fill="1" id="123951712#1" layer="-1.00" shape="327.90,736.07 336.83,755.23 342.87,753.13 344.50,757.79 346.27,757.18 345.07,739.85 348.62,739.62 348.19,732.95 349.37,732.92 348.53,720.03 348.44,720.11 346.79,720.13 346.73,719.28 336.00,720.06 336.23,723.15 327.90,736.07" type="building"/>
   <poly color="red" fill="1" id="124563303" layer="-1.00" shape="841.54,795.52 843.07,787.38 852.90,789.09 851.36,797.27 841.54,795.52" type="building"/>
   <poly color="red" fill="1" id="124563304" layer="-1.00" shape="840.04,803.30 841.54,795.52 851.35,797.29 849.87,805.09 844.43,804.08 840.04,803.30" type="building"/>
   <poly color="red" fill="1" id="124563307" layer="-1.00" shape="838.55,811.24 839.35,806.91 840.02,803.37 844.43,804.08 849.87,805.14 848.41,812.82 838.55,811.24" type="building"/>
   <poly color="red" fill="1" id="124563309" layer="-1.00" shape="837.05,819.12 838.55,811.24 848.41,812.82 846.95,820.56 837.05,819.12" type="building"/>
   <poly color="red" fill="1" id="124563311" layer="-1.00" shape="835.64,826.85 837.05,819.12 846.95,820.56 845.51,828.16 835.64,826.85" type="building"/>
   <poly color="red" fill="1" id="124563312" layer="-1.00" shape="833.90,835.94 834.12,834.74 834.60,832.30 833.13,832.02 834.15,826.66 835.64,826.85 845.51,828.16 843.77,837.35 833.90,835.94" type="building"/>
   <poly color="red" fill="1" id="124563315" layer="-1.00" shape="858.44,798.67 859.64,790.97 869.54,792.13 868.31,800.04 858.44,798.67" type="building"/>
   <poly color="red" fill="1" id="124563318" layer="-1.00" shape="856.96,808.25 858.44,798.67 868.31,800.04 870.90,800.43 868.91,809.94 866.84,809.66 856.96,808.25" type="building"/>
   <poly color="red" fill="1" id="124563320" layer="-1.00" shape="855.78,815.82 856.96,808.25 866.84,809.66 865.68,817.37 855.78,815.82" type="building"/>
   <poly color="red" fill="1" id="124563323" layer="-1.00" shape="853.67,829.42 855.78,815.82 865.68,817.37 863.54,830.77 853.67,829.42" type="building"/>
   <poly color="237,199,199" fill="1" id="124563345" layer="-1.00" shape="914.34,850.34 904.86,848.72 913.98,794.73 920.00,795.72 920.39,795.81 919.62,800.70 919.07,803.98 923.45,804.72 918.37,834.67 922.34,835.33 921.01,843.10 915.47,842.15 914.34,850.34" type="amenity"/>
   <poly color="red" fill="1" id="124563345#1" layer="-1.00" shape="914.34,850.34 904.86,848.72 913.98,794.73 920.00,795.72 920.39,795.81 919.62,800.70 919.07,803.98 923.45,804.72 918.37,834.67 922.34,835.33 921.01,843.10 915.47,842.15 914.34,850.34" type="building"/>
   <poly color="red" fill="1" id="126785684" layer="-1.00" shape="753.88,374.64 753.53,375.09 744.46,367.77 749.43,361.58 762.28,351.43 771.77,363.04 765.70,367.73 767.48,369.97 776.29,376.95 780.87,380.61 773.45,390.07 753.88,374.64" type="building"/>
   <poly color="red" fill="1" id="126785685" layer="-1.00" shape="767.48,369.97 765.70,367.73 771.77,363.04 773.01,364.55 773.14,364.46 778.07,370.47 773.84,375.00 767.48,369.97" type="building"/>
   <poly color="red" fill="1" id="126785686" layer="-1.00" shape="762.29,351.42 766.43,348.01 777.24,361.06 773.14,364.46 773.01,364.55 771.78,363.05 769.89,360.71 762.29,351.42" type="building"/>
   <poly color="red" fill="1" id="126785690" layer="-1.00" shape="783.30,334.09 787.77,330.40 793.46,336.72 794.81,338.22 795.74,339.28 799.08,342.98 794.55,346.80 783.30,334.09" type="building"/>
   <poly color="red" fill="1" id="126785699" layer="-1.00" shape="793.46,336.72 787.77,330.40 791.59,327.25 794.78,326.62 799.82,328.09 797.54,335.65 795.35,334.99 793.46,336.72" type="building"/>
   <poly color="red" fill="1" id="126785706" layer="-1.00" shape="781.63,396.55 789.11,387.18 791.60,389.21 794.18,391.34 786.67,400.74 781.63,396.55" type="building"/>
   <poly color="red" fill="1" id="126785707" layer="-1.00" shape="786.67,400.74 794.18,391.34 804.02,399.37 796.47,408.68 786.67,400.74" type="building"/>
   <poly color="red" fill="1" id="126785712" layer="-1.00" shape="796.47,408.68 804.02,399.37 809.28,403.61 808.02,405.17 801.68,412.90 796.47,408.68" type="building"/>
   <poly color="red" fill="1" id="126785714" layer="-1.00" shape="808.60,420.77 814.22,410.18 820.29,413.47 814.68,424.02 808.60,420.77" type="building"/>
   <poly color="red" fill="1" id="126785718" layer="-1.00" shape="837.14,436.02 842.67,425.41 848.66,428.50 842.95,439.12 837.14,436.02" type="building"/>
   <poly color="red" fill="1" id="126785720" layer="-1.00" shape="842.95,439.12 848.66,428.50 856.97,433.06 851.27,443.67 842.95,439.12" type="building"/>
   <poly color="red" fill="1" id="126785721" layer="-1.00" shape="860.70,444.27 864.17,437.06 865.66,434.00 868.82,435.32 869.94,432.33 872.23,433.23 872.07,433.63 873.83,434.20 868.93,447.38 860.88,444.36 860.70,444.27" type="building"/>
   <poly color="red" fill="1" id="126785722" layer="-1.00" shape="851.27,443.67 856.97,433.06 864.17,437.06 860.70,444.27 860.88,444.36 859.14,447.97 851.27,443.67" type="building"/>
   <poly color="red" fill="1" id="126785723" layer="-1.00" shape="865.66,434.00 867.03,431.16 869.94,432.33 868.82,435.32 865.66,434.00" type="building"/>
   <poly color="red" fill="1" id="126785724" layer="-1.00" shape="857.77,427.46 857.84,427.28 850.83,424.50 847.57,423.24 846.81,422.87 850.04,415.60 865.51,421.79 866.21,418.98 876.09,421.36 876.88,421.57 873.83,434.20 872.07,433.63 872.23,433.23 869.94,432.33 867.03,431.16 857.77,427.46" type="building"/>
   <poly color="237,199,199" fill="1" id="127907199" layer="-1.00" shape="777.18,786.98 777.90,784.21 782.14,786.01 781.43,788.29 777.18,786.98" type="amenity"/>
   <poly color="237,199,199" fill="1" id="127907202" layer="-1.00" shape="869.79,849.28 869.08,848.25 869.66,844.47 870.21,840.30 873.25,840.74 874.84,831.16 879.77,832.02 890.65,833.94 888.49,846.69 887.59,851.42 869.79,849.28" type="amenity"/>
   <poly color="red" fill="1" id="127907202#1" layer="-1.00" shape="869.79,849.28 869.08,848.25 869.66,844.47 870.21,840.30 873.25,840.74 874.84,831.16 879.77,832.02 890.65,833.94 888.49,846.69 887.59,851.42 869.79,849.28" type="building"/>
   <poly color="red" fill="1" id="127907203" layer="-1.00" shape="879.77,832.02 881.36,822.99 892.12,825.31 890.65,833.94 879.77,832.02" type="building"/>
   <poly color="red" fill="1" id="127907204" layer="-1.00" shape="881.36,822.99 882.69,815.14 893.45,817.43 892.12,825.31 881.36,822.99" type="building"/>
   <poly color="red" fill="1" id="127907205" layer="-1.00" shape="882.69,815.14 883.53,807.16 894.31,809.36 894.80,809.48 893.45,817.43 882.69,815.14" type="building"/>
   <poly color="red" fill="1" id="127907206" layer="-1.00" shape="883.53,807.16 884.73,800.14 895.58,801.85 894.31,809.36 883.53,807.16" type="building"/>