<?xml version="1.0" encoding="utf-8"?><!-- generated on 10/11/17 17:49:56 by SUMO netconvert Version 0.25.0
<?xml version="1.0" encoding="UTF-8"?>

<configuration xmlns:xsi="http://www.w3.org/2001/XMLSchema-instance" xsi:noNamespaceSchemaLocation="http://sumo.dlr.de/xsd/netconvertConfiguration.xsd">

    <input>
        <type-files value="osmNetconvert.typ.xml"/>
        <osm-files value="BN_Roettgen_rural_800.osm"/>
    </input>

    <output>
        <output-file value="BN_Roettgen_rural_800.net.xml"/>
    </output>

    <projection>
        <proj.utm value="true"/>
    </projection>

    <edge_removal>
        <remove-edges.by-type value="highway.track,highway.unsurfaced,highway.raceway,highway.bridleway,highway.path,highway.footway,highway.pedestrian,highway.cycleway,highway.step,highway.steps,highway.stairs,highway.bus_guideway,highway.ford,railway.rail,railway.tram,railway.light_rail,railway.subway,railway.preserved,railway.narrow_gauge,railway.monorail,railway.funicular"/>
    </edge_removal>

</configuration>
-->
<net version="0.25">
   <location convBoundary="0.00,0.00,798.12,810.51" netOffset="-363432.74,-5615604.72" origBoundary="7.067017,50.676316,7.078191,50.683580" projParameter="+proj=utm +zone=32 +ellps=WGS84 +datum=WGS84 +units=m +no_defs"/>
   <type allow="pedestrian" id="highway.bridleway" numLanes="1" oneway="1" priority="1" speed="2.78" width="2.00"/>
   <type allow="bus" id="highway.bus_guideway" numLanes="1" oneway="1" priority="1" speed="8.33"/>
   <type allow="bicycle" id="highway.cycleway" numLanes="1" oneway="0" priority="1" speed="5.56" width="1.00"/>
   <type allow="pedestrian" id="highway.footway" numLanes="1" oneway="1" priority="1" speed="8.33" width="2.00"/>
   <type allow="army" id="highway.ford" numLanes="1" oneway="0" priority="1" speed="2.78"/>
   <type disallow="tram rail_urban rail rail_electric ship" id="highway.living_street" numLanes="1" oneway="0" priority="3" speed="2.78"/>
   <type allow="private emergency authority army vip passenger hov taxi bus coach delivery truck trailer motorcycle evehicle custom1 custom2" id="highway.motorway" numLanes="2" oneway="1" priority="13" speed="44.44"/>
   <type allow="private emergency authority army vip passenger hov taxi bus coach delivery truck trailer motorcycle evehicle custom1 custom2" id="highway.motorway_link" numLanes="1" oneway="1" priority="12" speed="22.22"/>
   <type allow="bicycle pedestrian" id="highway.path" numLanes="1" oneway="1" priority="1" speed="2.78" width="2.00"/>
   <type allow="pedestrian" id="highway.pedestrian" numLanes="1" oneway="1" priority="1" speed="8.33" width="2.00"/>
   <type disallow="tram rail_urban rail rail_electric ship" id="highway.primary" numLanes="2" oneway="0" priority="9" speed="27.78"/>
   <type disallow="tram rail_urban rail rail_electric ship" id="highway.primary_link" numLanes="1" oneway="0" priority="8" speed="22.22"/>
   <type allow="vip" id="highway.raceway" numLanes="2" oneway="0" priority="14" speed="83.33"/>
   <type disallow="tram rail_urban rail rail_electric ship" id="highway.residential" numLanes="1" oneway="0" priority="4" speed="13.89"/>
   <type disallow="tram rail_urban rail rail_electric ship" id="highway.secondary" numLanes="2" oneway="0" priority="7" speed="27.78"/>
   <type disallow="tram rail_urban rail rail_electric ship" id="highway.secondary_link" numLanes="1" oneway="0" priority="6" speed="22.22"/>
   <type allow="delivery bicycle pedestrian" id="highway.service" numLanes="1" oneway="0" priority="2" speed="5.56"/>
   <type disallow="tram rail_urban rail rail_electric ship" id="highway.services" numLanes="1" oneway="0" priority="1" speed="8.33"/>
   <type allow="pedestrian" id="highway.stairs" numLanes="1" oneway="1" priority="1" speed="1.39" width="2.00"/>
   <type allow="pedestrian" id="highway.step" numLanes="1" oneway="1" priority="1" speed="1.39" width="2.00"/>
   <type allow="pedestrian" id="highway.steps" numLanes="1" oneway="1" priority="1" speed="1.39" width="2.00"/>
   <type disallow="tram rail_urban rail rail_electric ship" id="highway.tertiary" numLanes="1" oneway="0" priority="6" speed="22.22"/>
   <type disallow="tram rail_urban rail rail_electric ship" id="highway.tertiary_link" numLanes="1" oneway="0" priority="5" speed="22.22"/>
   <type disallow="tram rail_urban rail rail_electric ship" id="highway.track" numLanes="1" oneway="0" priority="1" speed="5.56"/>
   <type disallow="tram rail_urban rail rail_electric bicycle pedestrian ship" id="highway.trunk" numLanes="2" oneway="0" priority="11" speed="27.78"/>
   <type disallow="tram rail_urban rail rail_electric bicycle pedestrian ship" id="highway.trunk_link" numLanes="1" oneway="0" priority="10" speed="22.22"/>
   <type disallow="tram rail_urban rail rail_electric ship" id="highway.unclassified" numLanes="1" oneway="0" priority="5" speed="13.89"/>
   <type disallow="tram rail_urban rail rail_electric ship" id="highway.unsurfaced" numLanes="1" oneway="0" priority="1" speed="8.33"/>
   <type allow="rail_urban" id="railway.light_rail" numLanes="1" oneway="1" priority="15" speed="27.78"/>
   <type allow="rail" id="railway.preserved" numLanes="1" oneway="1" priority="15" speed="27.78"/>
   <type allow="rail rail_electric" id="railway.rail" numLanes="1" oneway="1" priority="15" speed="83.33"/>
   <type allow="rail_urban" id="railway.subway" numLanes="1" oneway="1" priority="15" speed="27.78"/>
   <type allow="tram" id="railway.tram" numLanes="1" oneway="1" priority="15" speed="13.89"/>
   <edge function="internal" id=":112269751_0">
      <lane disallow="tram rail_urban rail rail_electric ship" id=":112269751_0_0" index="0" length="8.03" shape="238.03,149.67 233.80,142.86" speed="13.89"/>
      <lane disallow="tram rail_urban rail rail_electric ship" id=":112269751_0_1" index="1" length="8.03" shape="240.84,147.94 236.59,141.11" speed="13.89"/>
   </edge>
   <edge function="internal" id=":112269751_2">
      <lane disallow="tram rail_urban rail rail_electric ship" id=":112269751_2_0" index="0" length="4.70" shape="240.84,147.94 239.76,144.98 240.05,143.46" speed="11.11"/>
   </edge>
   <edge function="internal" id=":112269751_3">
      <lane disallow="tram rail_urban rail rail_electric ship" id=":112269751_3_0" index="0" length="2.41" shape="240.84,147.94 240.89,146.46 241.37,145.67" speed="13.89"/>
   </edge>
   <edge function="internal" id=":112269751_11">
      <lane id=":112269751_11_0" index="0" length="9.04" shape="240.05,143.46 240.29,142.22 242.44,139.67 246.20,137.30" speed="11.11"/>
   </edge>
   <edge function="internal" id=":112269751_12">
      <lane id=":112269751_12_0" index="0" length="2.41" shape="241.37,145.67 242.29,145.59 243.64,146.21" speed="13.89"/>
   </edge>
   <edge function="internal" id=":112269751_4">
      <lane disallow="tram rail_urban rail rail_electric ship" id=":112269751_4_0" index="0" length="5.11" shape="247.66,140.26 246.49,141.07 245.90,142.04 245.89,143.18 246.45,144.48" speed="11.11"/>
   </edge>
   <edge function="internal" id=":112269751_5">
      <lane disallow="tram rail_urban rail rail_electric ship" id=":112269751_5_0" index="0" length="11.97" shape="247.66,140.26 243.65,141.96 240.47,142.66 238.12,142.38 236.59,141.11" speed="11.11"/>
   </edge>
   <edge function="internal" id=":112269751_6">
      <lane disallow="tram rail_urban rail rail_electric ship" id=":112269751_6_0" index="0" length="2.64" shape="247.66,140.26 246.19,140.07 245.45,139.52 245.45,139.28" speed="8.33"/>
   </edge>
   <edge function="internal" id=":112269751_13">
      <lane id=":112269751_13_0" index="0" length="2.18" shape="245.45,139.28 245.46,138.59 246.20,137.30" speed="8.33"/>
   </edge>
   <edge function="internal" id=":112269751_7">
      <lane disallow="tram rail_urban rail rail_electric ship" id=":112269751_7_0" index="0" length="5.25" shape="241.53,136.57 242.37,137.48 243.43,137.91 244.71,137.85 246.20,137.30" speed="11.11"/>
   </edge>
   <edge function="internal" id=":112269751_8">
      <lane disallow="tram rail_urban rail rail_electric ship" id=":112269751_8_0" index="0" length="9.30" shape="241.53,136.57 246.45,144.48" speed="13.89"/>
      <lane disallow="tram rail_urban rail rail_electric ship" id=":112269751_8_1" index="1" length="9.30" shape="238.74,138.33 243.64,146.21" speed="13.89"/>
   </edge>
   <edge function="internal" id=":112269751_10">
      <lane disallow="tram rail_urban rail rail_electric ship" id=":112269751_10_0" index="0" length="3.23" shape="238.74,138.33 239.25,139.83 239.06,140.79 238.46,141.08" speed="13.89"/>
   </edge>
   <edge function="internal" id=":112269751_14">
      <lane id=":112269751_14_0" index="0" length="1.90" shape="238.46,141.08 238.17,141.22 236.59,141.11" speed="13.89"/>
   </edge>
   <edge function="internal" id=":112269753_0">
      <lane disallow="tram rail_urban rail rail_electric ship" id=":112269753_0_0" index="0" length="9.34" shape="338.41,317.74 333.68,309.69" speed="13.89"/>
      <lane disallow="tram rail_urban rail rail_electric ship" id=":112269753_0_1" index="1" length="9.34" shape="341.26,316.06 336.53,308.02" speed="13.89"/>
   </edge>
   <edge function="internal" id=":112269753_2">
      <lane disallow="tram rail_urban rail rail_electric ship" id=":112269753_2_0" index="0" length="4.35" shape="341.26,316.06 340.41,313.44 340.76,311.88" speed="11.11"/>
   </edge>
   <edge function="internal" id=":112269753_3">
      <lane disallow="tram rail_urban rail rail_electric ship" id=":112269753_3_0" index="0" length="5.07" shape="341.26,316.06 339.90,314.50 339.65,313.24 340.51,312.28 340.92,312.15" speed="13.89"/>
   </edge>
   <edge function="internal" id=":112269753_11">
      <lane id=":112269753_11_0" index="0" length="8.59" shape="340.76,311.88 341.00,310.85 343.02,308.29 346.47,305.77" speed="11.11"/>
   </edge>
   <edge function="internal" id=":112269753_12">
      <lane id=":112269753_12_0" index="0" length="1.64" shape="340.92,312.15 342.47,311.63" speed="13.89"/>
   </edge>
   <edge function="internal" id=":112269753_4">
      <lane disallow="tram rail_urban rail rail_electric ship" id=":112269753_4_0" index="0" length="3.16" shape="348.17,308.60 345.31,309.95" speed="11.11"/>
   </edge>
   <edge function="internal" id=":112269753_5">
      <lane disallow="tram rail_urban rail rail_electric ship" id=":112269753_5_0" index="0" length="13.17" shape="348.17,308.60 344.31,310.44 341.08,310.96 338.48,310.15 336.53,308.02" speed="11.11"/>
   </edge>
   <edge function="internal" id=":112269753_6">
      <lane disallow="tram rail_urban rail rail_electric ship" id=":112269753_6_0" index="0" length="4.82" shape="348.17,308.60 346.68,308.53 345.90,308.03 345.83,307.11 346.47,305.77" speed="8.33"/>
   </edge>
   <edge function="internal" id=":112269753_7">
      <lane disallow="tram rail_urban rail rail_electric ship" id=":112269753_7_0" index="0" length="5.01" shape="342.22,304.68 343.08,305.76 344.07,306.30 345.20,306.30 346.47,305.77" speed="11.11"/>
   </edge>
   <edge function="internal" id=":112269753_8">
      <lane disallow="tram rail_urban rail rail_electric ship" id=":112269753_8_0" index="0" length="6.11" shape="342.22,304.68 345.31,309.95" speed="13.89"/>
      <lane disallow="tram rail_urban rail rail_electric ship" id=":112269753_8_1" index="1" length="6.11" shape="339.37,306.35 342.47,311.63" speed="13.89"/>
   </edge>
   <edge function="internal" id=":112269753_10">
      <lane disallow="tram rail_urban rail rail_electric ship" id=":112269753_10_0" index="0" length="2.41" shape="339.37,306.35 339.29,307.84 338.78,308.61" speed="13.89"/>
   </edge>
   <edge function="internal" id=":112269753_13">
      <lane id=":112269753_13_0" index="0" length="2.41" shape="338.78,308.61 337.86,308.67 336.53,308.02" speed="13.89"/>
   </edge>
   <edge function="internal" id=":112269759_0">
      <lane disallow="tram rail_urban rail rail_electric ship" id=":112269759_0_0" index="0" length="4.97" shape="727.99,163.46 727.70,162.13 727.05,161.21 726.05,160.69 724.70,160.57" speed="8.33"/>
   </edge>
   <edge function="internal" id=":112269759_1">
      <lane disallow="tram rail_urban rail rail_electric ship" id=":112269759_1_0" index="0" length="9.41" shape="727.99,163.46 727.50,154.06" speed="8.33"/>
   </edge>
   <edge function="internal" id=":112269759_2">
      <lane disallow="tram rail_urban rail rail_electric ship" id=":112269759_2_0" index="0" length="4.82" shape="727.99,163.46 728.72,162.16 729.51,161.68 730.36,162.03 731.28,163.19" speed="8.33"/>
   </edge>
   <edge function="internal" id=":112269759_3">
      <lane disallow="tram rail_urban rail rail_electric ship" id=":112269759_3_0" index="0" length="9.23" shape="730.80,153.98 731.28,163.19" speed="8.33"/>
   </edge>
   <edge function="internal" id=":112269759_4">
      <lane disallow="tram rail_urban rail rail_electric ship" id=":112269759_4_0" index="0" length="10.18" shape="730.80,153.98 730.48,156.74 729.35,158.76 727.42,160.03 724.70,160.57" speed="8.33"/>
   </edge>
   <edge function="internal" id=":112269759_5">
      <lane disallow="tram rail_urban rail rail_electric ship" id=":112269759_5_0" index="0" length="4.82" shape="730.80,153.98 730.01,155.23 729.19,155.67 728.36,155.28 727.50,154.06" speed="8.33"/>
   </edge>
   <edge function="internal" id=":112269759_6">
      <lane disallow="tram rail_urban rail rail_electric ship" id=":112269759_6_0" index="0" length="4.97" shape="724.52,157.28 725.85,157.02 726.79,156.39 727.34,155.41 727.50,154.06" speed="8.33"/>
   </edge>
   <edge function="internal" id=":112269759_7">
      <lane disallow="tram rail_urban rail rail_electric ship" id=":112269759_7_0" index="0" length="10.19" shape="724.52,157.28 727.29,157.52 729.34,158.59 730.67,160.48 731.28,163.19" speed="8.33"/>
   </edge>
   <edge function="internal" id=":112269759_8">
      <lane disallow="tram rail_urban rail rail_electric ship" id=":112269759_8_0" index="0" length="4.82" shape="724.52,157.28 725.80,158.04 726.25,158.84 725.89,159.68 724.70,160.57" speed="8.33"/>
   </edge>
   <edge function="internal" id=":112269768_0">
      <lane disallow="tram rail_urban rail rail_electric ship" id=":112269768_0_0" index="0" length="6.53" shape="169.02,37.83 168.49,36.43 168.62,35.03 169.41,33.64 170.86,32.24" speed="11.11"/>
   </edge>
   <edge function="internal" id=":112269768_1">
      <lane disallow="tram rail_urban rail rail_electric ship" id=":112269768_1_0" index="0" length="4.82" shape="171.83,36.10 171.88,34.62 172.37,33.83 173.28,33.75 174.64,34.37" speed="13.89"/>
   </edge>
   <edge function="internal" id=":112269768_2">
      <lane disallow="tram rail_urban rail rail_electric ship" id=":112269768_2_0" index="0" length="12.85" shape="165.10,32.55 168.98,30.13 172.34,29.33 175.16,30.17 177.45,32.64" speed="11.11"/>
      <lane disallow="tram rail_urban rail rail_electric ship" id=":112269768_2_1" index="1" length="12.85" shape="165.10,32.55 167.83,31.00 170.33,30.79 172.59,31.91 174.64,34.37" speed="11.11"/>
   </edge>
   <edge function="internal" id=":112269768_4">
      <lane disallow="tram rail_urban rail rail_electric ship" id=":112269768_4_0" index="0" length="8.43" shape="165.10,32.55 166.42,30.31 167.82,29.52 169.30,30.16 170.86,32.24" speed="8.33"/>
   </edge>
   <edge function="internal" id=":112269773_0">
      <lane disallow="tram rail_urban rail rail_electric ship" id=":112269773_0_0" index="0" length="3.25" shape="450.53,504.80 450.07,501.59" speed="11.11"/>
   </edge>
   <edge function="internal" id=":112269773_1">
      <lane disallow="tram rail_urban rail rail_electric ship" id=":112269773_1_0" index="0" length="9.47" shape="450.53,504.80 445.60,496.69" speed="13.89"/>
      <lane disallow="tram rail_urban rail rail_electric ship" id=":112269773_1_1" index="1" length="9.47" shape="453.34,503.07 448.42,494.99" speed="13.89"/>
   </edge>
   <edge function="internal" id=":112269773_3">
      <lane disallow="tram rail_urban rail rail_electric ship" id=":112269773_3_0" index="0" length="2.41" shape="453.34,503.07 453.40,501.58 453.88,500.80" speed="13.89"/>
   </edge>
   <edge function="internal" id=":112269773_11">
      <lane id=":112269773_11_0" index="0" length="2.41" shape="453.88,500.80 454.80,500.72 456.15,501.34" speed="13.89"/>
   </edge>
   <edge function="internal" id=":112269773_4">
      <lane disallow="tram rail_urban rail rail_electric ship" id=":112269773_4_0" index="0" length="9.41" shape="454.07,491.58 458.96,499.61" speed="13.89"/>
      <lane disallow="tram rail_urban rail rail_electric ship" id=":112269773_4_1" index="1" length="9.41" shape="451.25,493.29 456.15,501.34" speed="13.89"/>
   </edge>
   <edge function="internal" id=":112269773_6">
      <lane disallow="tram rail_urban rail rail_electric ship" id=":112269773_6_0" index="0" length="5.65" shape="451.25,493.29 452.47,495.95 452.68,498.22 452.51,498.62" speed="11.11"/>
   </edge>
   <edge function="internal" id=":112269773_7">
      <lane disallow="tram rail_urban rail rail_electric ship" id=":112269773_7_0" index="0" length="2.41" shape="451.25,493.29 451.18,494.77 450.69,495.55" speed="13.89"/>
   </edge>
   <edge function="internal" id=":112269773_12">
      <lane id=":112269773_12_0" index="0" length="3.95" shape="452.51,498.62 451.88,500.10 450.07,501.59" speed="11.11"/>
   </edge>
   <edge function="internal" id=":112269773_13">
      <lane id=":112269773_13_0" index="0" length="2.41" shape="450.69,495.55 449.77,495.62 448.42,494.99" speed="13.89"/>
   </edge>
   <edge function="internal" id=":112269773_8">
      <lane disallow="tram rail_urban rail rail_electric ship" id=":112269773_8_0" index="0" length="4.36" shape="445.24,500.50 446.01,499.85 446.32,499.00 446.19,497.94 445.60,496.69" speed="11.11"/>
   </edge>
   <edge function="internal" id=":112269773_9">
      <lane disallow="tram rail_urban rail rail_electric ship" id=":112269773_9_0" index="0" length="12.25" shape="445.24,500.50 448.83,498.94 451.84,498.55 454.28,499.35 456.15,501.34" speed="11.11"/>
   </edge>
   <edge function="internal" id=":112269773_10">
      <lane disallow="tram rail_urban rail rail_electric ship" id=":112269773_10_0" index="0" length="7.23" shape="445.24,500.50 446.86,498.96 448.20,498.63 449.27,499.50 450.07,501.59" speed="8.33"/>
   </edge>
   <edge function="internal" id=":1272250574_0">
      <lane disallow="tram rail_urban rail rail_electric ship" id=":1272250574_0_0" index="0" length="9.49" shape="96.38,420.10 95.92,429.59" speed="8.33"/>
   </edge>
   <edge function="internal" id=":1272250574_1">
      <lane allow="delivery bicycle pedestrian" id=":1272250574_1_0" index="0" length="5.28" shape="96.38,420.10 95.84,422.89 94.53,424.83 94.44,424.88" speed="6.95"/>
   </edge>
   <edge function="internal" id=":1272250574_2">
      <lane disallow="tram rail_urban rail rail_electric ship" id=":1272250574_2_0" index="0" length="2.41" shape="96.38,420.10 95.49,421.30 94.65,421.67" speed="8.33"/>
   </edge>
   <edge function="internal" id=":1272250574_9">
      <lane id=":1272250574_9_0" index="0" length="5.07" shape="94.44,424.88 92.47,425.93 89.64,426.17" speed="6.95"/>
   </edge>
   <edge function="internal" id=":1272250574_10">
      <lane id=":1272250574_10_0" index="0" length="2.41" shape="94.65,421.67 93.84,421.22 93.08,419.94" speed="8.33"/>
   </edge>
   <edge function="internal" id=":1272250574_3">
      <lane disallow="tram rail_urban rail rail_electric ship" id=":1272250574_3_0" index="0" length="5.01" shape="89.82,422.88 91.19,422.76 92.19,422.23 92.82,421.29 93.08,419.94" speed="6.95"/>
   </edge>
   <edge function="internal" id=":1272250574_4">
      <lane disallow="tram rail_urban rail rail_electric ship" id=":1272250574_4_0" index="0" length="10.32" shape="89.82,422.88 92.60,423.43 94.55,424.73 95.65,426.78 95.92,429.59" speed="6.95"/>
   </edge>
   <edge function="internal" id=":1272250574_5">
      <lane allow="delivery bicycle pedestrian" id=":1272250574_5_0" index="0" length="4.82" shape="89.82,422.88 91.01,423.77 91.38,424.62 90.92,425.42 89.64,426.17" speed="5.56"/>
   </edge>
   <edge function="internal" id=":1272250574_6">
      <lane allow="delivery bicycle pedestrian" id=":1272250574_6_0" index="0" length="5.03" shape="92.62,429.43 92.49,428.07 91.95,427.07 91.00,426.44 89.64,426.17" speed="6.95"/>
   </edge>
   <edge function="internal" id=":1272250574_7">
      <lane disallow="tram rail_urban rail rail_electric ship" id=":1272250574_7_0" index="0" length="9.50" shape="92.62,429.43 93.08,419.94" speed="8.33"/>
   </edge>
   <edge function="internal" id=":1272250574_8">
      <lane disallow="tram rail_urban rail rail_electric ship" id=":1272250574_8_0" index="0" length="2.41" shape="92.62,429.43 93.51,428.23 94.35,427.86" speed="8.33"/>
   </edge>
   <edge function="internal" id=":1272250574_11">
      <lane id=":1272250574_11_0" index="0" length="2.41" shape="94.35,427.86 95.15,428.31 95.92,429.59" speed="8.33"/>
   </edge>
   <edge function="internal" id=":1272250575_0">
      <lane allow="delivery bicycle pedestrian" id=":1272250575_0_0" index="0" length="0.10" shape="67.41,424.93 67.40,424.93" speed="5.56"/>
   </edge>
   <edge function="internal" id=":1272250575_1">
      <lane allow="delivery bicycle pedestrian" id=":1272250575_1_0" index="0" length="2.41" shape="67.41,424.93 66.22,424.03 65.85,423.18" speed="5.56"/>
   </edge>
   <edge function="internal" id=":1272250575_4">
      <lane id=":1272250575_4_0" index="0" length="2.41" shape="65.85,423.18 66.31,422.38 67.60,421.63" speed="5.56"/>
   </edge>
   <edge function="internal" id=":1272250575_2">
      <lane allow="delivery bicycle pedestrian" id=":1272250575_2_0" index="0" length="0.10" shape="67.60,421.63 67.60,421.63" speed="5.56"/>
   </edge>
   <edge function="internal" id=":1272250575_3">
      <lane allow="delivery bicycle pedestrian" id=":1272250575_3_0" index="0" length="2.41" shape="67.60,421.63 68.78,422.53 69.15,423.38" speed="5.56"/>
   </edge>
   <edge function="internal" id=":1272250575_5">
      <lane id=":1272250575_5_0" index="0" length="2.41" shape="69.15,423.38 68.69,424.18 67.40,424.93" speed="5.56"/>
   </edge>
   <edge function="internal" id=":1272250576_0">
      <lane allow="delivery bicycle pedestrian" id=":1272250576_0_0" index="0" length="0.10" shape="74.04,425.31 74.04,425.31" speed="5.56"/>
   </edge>
   <edge function="internal" id=":1272250576_1">
      <lane allow="delivery bicycle pedestrian" id=":1272250576_1_0" index="0" length="2.41" shape="74.04,425.31 72.85,424.42 72.49,423.57" speed="5.56"/>
   </edge>
   <edge function="internal" id=":1272250576_4">
      <lane id=":1272250576_4_0" index="0" length="2.41" shape="72.49,423.57 72.94,422.77 74.23,422.02" speed="5.56"/>
   </edge>
   <edge function="internal" id=":1272250576_2">
      <lane allow="delivery bicycle pedestrian" id=":1272250576_2_0" index="0" length="0.10" shape="74.23,422.02 74.23,422.02" speed="5.56"/>
   </edge>
   <edge function="internal" id=":1272250576_3">
      <lane allow="delivery bicycle pedestrian" id=":1272250576_3_0" index="0" length="2.41" shape="74.23,422.02 75.42,422.91 75.78,423.76" speed="5.56"/>
   </edge>
   <edge function="internal" id=":1272250576_5">
      <lane id=":1272250576_5_0" index="0" length="2.41" shape="75.78,423.76 75.32,424.56 74.04,425.31" speed="5.56"/>
   </edge>
   <edge function="internal" id=":1272250577_0">
      <lane allow="delivery bicycle pedestrian" id=":1272250577_0_0" index="0" length="4.82" shape="54.74,424.19 53.55,423.29 53.19,422.45 53.65,421.65 54.93,420.89" speed="5.56"/>
   </edge>
   <edge function="internal" id=":148231003_0">
      <lane disallow="tram rail_urban rail rail_electric ship" id=":148231003_0_0" index="0" length="5.70" shape="95.28,339.86 95.09,338.38 95.31,337.04 95.95,335.84 97.00,334.78" speed="8.33"/>
   </edge>
   <edge function="internal" id=":148231003_1">
      <lane disallow="tram rail_urban rail rail_electric ship" id=":148231003_1_0" index="0" length="2.85" shape="95.28,339.86 95.77,338.45 96.47,337.85 96.89,337.94" speed="8.33"/>
   </edge>
   <edge function="internal" id=":148231003_4">
      <lane id=":148231003_4_0" index="0" length="1.97" shape="96.89,337.94 97.37,338.04 98.48,339.03" speed="8.33"/>
   </edge>
   <edge function="internal" id=":148231003_2">
      <lane disallow="tram rail_urban rail rail_electric ship" id=":148231003_2_0" index="0" length="1.86" shape="99.04,337.37 98.70,337.72 98.49,338.11 98.42,338.55 98.48,339.03" speed="8.33"/>
   </edge>
   <edge function="internal" id=":148231003_3">
      <lane disallow="tram rail_urban rail rail_electric ship" id=":148231003_3_0" index="0" length="2.08" shape="99.04,337.37 97.56,337.49 97.02,337.24" speed="8.33"/>
   </edge>
   <edge function="internal" id=":148231003_5">
      <lane id=":148231003_5_0" index="0" length="2.74" shape="97.02,337.24 96.72,337.10 96.54,336.19 97.00,334.78" speed="8.33"/>
   </edge>
   <edge function="internal" id=":148231825_0">
      <lane disallow="tram rail_urban rail rail_electric ship" id=":148231825_0_0" index="0" length="5.20" shape="106.06,802.29 106.14,803.64 105.87,804.86 105.27,805.96 104.33,806.92" speed="8.33"/>
   </edge>
   <edge function="internal" id=":148231825_1">
      <lane disallow="tram rail_urban rail rail_electric ship" id=":148231825_1_0" index="0" length="2.84" shape="106.06,802.29 105.46,803.65 104.72,804.20 104.30,804.07" speed="8.33"/>
   </edge>
   <edge function="internal" id=":148231825_4">
      <lane id=":148231825_4_0" index="0" length="1.98" shape="104.30,804.07 103.83,803.93 102.81,802.85" speed="8.33"/>
   </edge>
   <edge function="internal" id=":148231825_2">
      <lane disallow="tram rail_urban rail rail_electric ship" id=":148231825_2_0" index="0" length="1.70" shape="102.24,804.37 102.55,804.05 102.75,803.69 102.83,803.29 102.81,802.85" speed="8.33"/>
   </edge>
   <edge function="internal" id=":148231825_3">
      <lane disallow="tram rail_urban rail rail_electric ship" id=":148231825_3_0" index="0" length="2.08" shape="102.24,804.37 103.73,804.22 104.26,804.47" speed="8.33"/>
   </edge>
   <edge function="internal" id=":148231825_5">
      <lane id=":148231825_5_0" index="0" length="2.74" shape="104.26,804.47 104.57,804.60 104.77,805.50 104.33,806.92" speed="8.33"/>
   </edge>
   <edge function="internal" id=":1577082410_0">
      <lane disallow="tram rail_urban rail rail_electric ship" id=":1577082410_0_0" index="0" length="1.36" shape="737.96,609.35 737.77,609.06 737.53,608.83 737.25,608.65 736.93,608.53" speed="8.33"/>
   </edge>
   <edge function="internal" id=":1577082410_1">
      <lane disallow="tram rail_urban rail rail_electric ship" id=":1577082410_1_0" index="0" length="2.06" shape="737.96,609.35 738.12,607.88 738.46,607.41" speed="8.33"/>
   </edge>
   <edge function="internal" id=":1577082410_4">
      <lane id=":1577082410_4_0" index="0" length="2.76" shape="738.46,607.41 738.67,607.13 739.59,607.12 740.89,607.85" speed="8.33"/>
   </edge>
   <edge function="internal" id=":1577082410_2">
      <lane disallow="tram rail_urban rail rail_electric ship" id=":1577082410_2_0" index="0" length="4.15" shape="737.74,605.34 738.74,605.70 739.60,606.24 740.32,606.95 740.89,607.85" speed="8.33"/>
   </edge>
   <edge function="internal" id=":1577082410_3">
      <lane disallow="tram rail_urban rail rail_electric ship" id=":1577082410_3_0" index="0" length="2.86" shape="737.74,605.34 738.74,606.44 738.93,607.34 738.64,607.68" speed="8.33"/>
   </edge>
   <edge function="internal" id=":1577082410_5">
      <lane id=":1577082410_5_0" index="0" length="1.96" shape="738.64,607.68 738.33,608.04 736.93,608.53" speed="8.33"/>
   </edge>
   <edge function="internal" id=":1577082413_0">
      <lane disallow="tram rail_urban rail rail_electric ship" id=":1577082413_0_0" index="0" length="4.94" shape="746.43,614.87 745.09,615.27 744.02,615.89 743.23,616.72 742.71,617.77" speed="5.56"/>
   </edge>
   <edge function="internal" id=":1577082413_1">
      <lane disallow="tram rail_urban rail rail_electric ship" id=":1577082413_1_0" index="0" length="9.00" shape="746.43,614.87 744.04,615.03 742.00,614.49 740.30,613.23 738.94,611.27" speed="5.56"/>
   </edge>
   <edge function="internal" id=":1577082413_2">
      <lane disallow="tram rail_urban rail rail_electric ship" id=":1577082413_2_0" index="0" length="4.82" shape="746.43,614.87 745.05,614.31 744.48,613.58 744.72,612.69 745.77,611.64" speed="2.78"/>
   </edge>
   <edge function="internal" id=":1577082413_3">
      <lane disallow="tram rail_urban rail rail_electric ship" id=":1577082413_3_0" index="0" length="4.69" shape="741.87,609.76 742.58,610.78 743.47,611.44 744.53,611.72 745.77,611.64" speed="5.56"/>
   </edge>
   <edge function="internal" id=":1577082413_4">
      <lane disallow="tram rail_urban rail rail_electric ship" id=":1577082413_4_0" index="0" length="8.26" shape="741.87,609.76 742.72,611.81 743.15,613.83 743.14,615.82 742.71,617.77" speed="8.33"/>
   </edge>
   <edge function="internal" id=":1577082413_5">
      <lane disallow="tram rail_urban rail rail_electric ship" id=":1577082413_5_0" index="0" length="2.60" shape="741.87,609.76 741.71,611.24 741.16,611.98 740.97,611.98" speed="8.33"/>
   </edge>
   <edge function="internal" id=":1577082413_9">
      <lane id=":1577082413_9_0" index="0" length="2.22" shape="740.97,611.98 740.24,611.99 738.94,611.27" speed="8.33"/>
   </edge>
   <edge function="internal" id=":1577082413_6">
      <lane disallow="tram rail_urban rail rail_electric ship" id=":1577082413_6_0" index="0" length="5.63" shape="739.58,616.72 739.86,615.42 739.85,614.08 739.54,612.70 738.94,611.27" speed="8.33"/>
   </edge>
   <edge function="internal" id=":1577082413_7">
      <lane disallow="tram rail_urban rail rail_electric ship" id=":1577082413_7_0" index="0" length="3.57" shape="739.58,616.72 740.48,614.86 741.49,613.75" speed="5.56"/>
   </edge>
   <edge function="internal" id=":1577082413_8">