<?xml version="1.0" encoding="utf-8"?><!-- generated on 10/11/17 17:50:00 by SUMO polyconvert Version 0.25.0
<?xml version="1.0" encoding="UTF-8"?>

<configuration xmlns:xsi="http://www.w3.org/2001/XMLSchema-instance" xsi:noNamespaceSchemaLocation="http://sumo.dlr.de/xsd/polyconvertConfiguration.xsd">

    <input>
        <net-file value="BN_Roettgen_rural_800.net.xml"/>
        <osm-files value="BN_Roettgen_rural_800.osm"/>
        <type-file value="osmPolyconvert.typ.xml"/>
    </input>

    <output>
        <output-file value="BN_Roettgen_rural_800.poly.xml"/>
    </output>

    <projection>
        <proj.utm value="true"/>
    </projection>

    <processing>
        <poi-layer-offset value="5"/>
    </processing>

</configuration>
-->
<additional>
   <location convBoundary="-6.59,-11.35,800.65,815.54" netOffset="-363432.74,-5615604.72" origBoundary="7.067003,50.676302,7.078191,50.683595" projParameter="+proj=utm +zone=32 +ellps=WGS84 +datum=WGS84 +units=m +no_defs"/>
   <poly color="237,199,199" fill="1" id="111650296" layer="-1.00" shape="451.68,549.05 459.00,540.06 464.49,544.56 463.77,545.40 467.39,548.19 467.75,547.77 468.32,548.23 467.93,548.74 471.42,551.50 472.46,551.48 472.47,552.16 471.51,552.20 470.58,553.32 475.87,557.76 476.08,559.99 474.23,562.14 471.67,562.27 466.94,558.30 466.17,559.00 466.24,559.92 465.64,559.96 465.56,558.78 465.28,558.62 465.02,558.97 464.58,558.69 464.86,558.36 461.90,556.21 461.38,556.70 460.90,556.31 461.35,555.72 457.77,552.82 457.21,553.54 451.68,549.05" type="amenity"/>
   <poly color="red" fill="1" id="111650296#1" layer="-1.00" shape="451.68,549.05 459.00,540.06 464.49,544.56 463.77,545.40 467.39,548.19 467.75,547.77 468.32,548.23 467.93,548.74 471.42,551.50 472.46,551.48 472.47,552.16 471.51,552.20 470.58,553.32 475.87,557.76 476.08,559.99 474.23,562.14 471.67,562.27 466.94,558.30 466.17,559.00 466.24,559.92 465.64,559.96 465.56,558.78 465.28,558.62 465.02,558.97 464.58,558.69 464.86,558.36 461.90,556.21 461.38,556.70 460.90,556.31 461.35,555.72 457.77,552.82 457.21,553.54 451.68,549.05" type="building"/>
   <poly color="237,199,199" fill="1" id="111652651" layer="-1.00" shape="499.72,488.41 502.03,487.64 499.48,480.01 484.22,485.07 470.28,460.80 455.60,469.10 466.30,487.55 472.59,499.14 482.16,494.11 499.72,488.41" type="amenity"/>
   <poly color="red" fill="1" id="111652651#1" layer="-1.00" shape="499.72,488.41 502.03,487.64 499.48,480.01 484.22,485.07 470.28,460.80 455.60,469.10 466.30,487.55 472.59,499.14 482.16,494.11 499.72,488.41" type="building"/>
   <poly color="237,199,199" fill="1" id="111652654" layer="-1.00" shape="499.72,488.41 504.96,504.06 512.88,501.42 508.11,487.13 514.54,484.99 511.53,476.00 499.48,480.01 502.03,487.64 499.72,488.41" type="amenity"/>
   <poly color="red" fill="1" id="111652654#1" layer="-1.00" shape="499.72,488.41 504.96,504.06 512.88,501.42 508.11,487.13 514.54,484.99 511.53,476.00 499.48,480.01 502.03,487.64 499.72,488.41" type="building"/>
   <poly color="237,199,199" fill="1" id="111653840" layer="-1.00" shape="280.92,310.64 275.61,300.81 282.99,296.83 283.92,296.33 289.23,306.16 280.92,310.64" type="amenity"/>
   <poly color="red" fill="1" id="111653840#1" layer="-1.00" shape="280.92,310.64 275.61,300.81 282.99,296.83 283.92,296.33 289.23,306.16 280.92,310.64" type="building"/>
   <poly color="red" fill="1" id="111656187" layer="-1.00" shape="42.70,730.36 46.73,743.08 56.87,739.87 43.74,698.43 59.58,693.43 57.07,685.49 59.79,684.64 46.76,643.50 43.84,644.42 40.13,632.73 63.23,625.45 60.83,617.90 64.96,616.60 62.00,607.27 29.52,617.51 30.41,620.29 28.83,620.79 49.70,686.65 25.98,694.12 29.03,703.74 33.81,702.24 38.97,718.51 13.85,740.81 13.46,739.58 42.70,730.36" type="building"/>
   <poly color="red" fill="1" id="111656188" layer="-1.00" shape="70.69,729.23 66.44,715.45 78.94,711.61 82.34,722.65 76.87,724.33 77.71,727.07 70.69,729.23" type="building"/>
   <poly color="237,199,199" fill="0" id="111656189" layer="-1.00" shape="16.52,625.96 20.00,637.09" type="amenity"/>
   <poly color="red" fill="0" id="111656189#1" layer="-1.00" shape="16.52,625.96 20.00,637.09" type="building"/>
   <poly color="237,199,199" fill="1" id="111658415" layer="-1.00" shape="145.18,805.32 139.98,804.58 139.62,807.12 126.18,805.22 125.57,809.54 125.01,809.46 124.57,812.60 123.48,812.45 145.18,805.32" type="amenity"/>
   <poly color="red" fill="1" id="111658415#1" layer="-1.00" shape="145.18,805.32 139.98,804.58 139.62,807.12 126.18,805.22 125.57,809.54 125.01,809.46 124.57,812.60 123.48,812.45 145.18,805.32" type="building"/>
   <poly color="237,199,199" fill="1" id="111659098" layer="-1.00" shape="165.56,786.67 166.02,783.40 171.73,784.21 172.90,775.94 163.59,774.63 163.43,775.69 151.46,774.00 151.65,772.64 136.22,770.47 135.88,772.86 131.80,772.29 132.14,769.85 128.77,769.39 126.97,782.02 130.88,782.56 130.98,781.79 155.20,785.21 165.56,786.67" type="amenity"/>
   <poly color="red" fill="1" id="111659098#1" layer="-1.00" shape="165.56,786.67 166.02,783.40 171.73,784.21 172.90,775.94 163.59,774.63 163.43,775.69 151.46,774.00 151.65,772.64 136.22,770.47 135.88,772.86 131.80,772.29 132.14,769.85 128.77,769.39 126.97,782.02 130.88,782.56 130.98,781.79 155.20,785.21 165.56,786.67" type="building"/>
   <poly color="red" fill="0" id="111659101" layer="-1.00" shape="164.91,802.17 163.39,801.96 165.56,786.67 155.20,785.21 152.20,806.31 145.18,805.32" type="building"/>
   <poly color="red" fill="1" id="111659199" layer="-1.00" shape="125.58,774.35 127.19,762.28 116.06,760.79 114.44,772.86 125.58,774.35" type="building"/>
   <poly color="237,199,199" fill="1" id="111729054" layer="-1.00" shape="58.29,493.13 58.33,492.34 66.61,492.72 66.15,502.47 57.87,502.08 58.16,495.96 58.29,493.13" type="amenity"/>
   <poly color="red" fill="1" id="111729054#1" layer="-1.00" shape="58.29,493.13 58.33,492.34 66.61,492.72 66.15,502.47 57.87,502.08 58.16,495.96 58.29,493.13" type="building"/>
   <poly color="237,199,199" fill="1" id="111729336" layer="-1.00" shape="58.16,495.96 54.32,495.78 54.23,497.68 51.07,497.53 50.70,505.51 41.98,505.10 41.84,508.03 34.37,507.68 34.45,506.14 27.37,505.82 27.47,503.75 20.20,503.40 20.94,487.42 28.39,487.77 28.47,486.05 35.39,486.38 35.45,485.11 42.64,485.45 42.70,483.94 50.35,484.30 50.13,488.89 54.75,489.10 54.57,492.96 58.29,493.13 58.16,495.96" type="amenity"/>
   <poly color="red" fill="1" id="111729336#1" layer="-1.00" shape="58.16,495.96 54.32,495.78 54.23,497.68 51.07,497.53 50.70,505.51 41.98,505.10 41.84,508.03 34.37,507.68 34.45,506.14 27.37,505.82 27.47,503.75 20.20,503.40 20.94,487.42 28.39,487.77 28.47,486.05 35.39,486.38 35.45,485.11 42.64,485.45 42.70,483.94 50.35,484.30 50.13,488.89 54.75,489.10 54.57,492.96 58.29,493.13 58.16,495.96" type="building"/>
   <poly color="red" fill="1" id="111730800" layer="-1.00" shape="8.55,432.01 14.54,432.26 14.93,423.20 15.48,410.42 9.48,410.17 8.55,432.01" type="building"/>
   <poly color="red" fill="1" id="111730801" layer="-1.00" shape="22.82,436.18 22.90,434.27 23.26,425.75 32.20,426.13 32.11,428.17 31.75,436.57 22.82,436.18" type="building"/>
   <poly color="red" fill="1" id="111730802" layer="-1.00" shape="44.36,431.47 44.48,428.70 45.99,393.50 53.13,393.81 52.10,417.80 51.50,431.78 44.36,431.47" type="building"/>
   <poly color="red" fill="1" id="111730803" layer="-1.00" shape="31.67,438.43 31.75,436.57 32.11,428.17 44.48,428.70 44.36,431.47 44.04,438.95 31.67,438.43" type="building"/>
   <poly color="red" fill="1" id="111730804" layer="-1.00" shape="14.47,433.91 22.90,434.27 23.26,425.75 23.36,423.56 14.93,423.20 14.54,432.26 14.47,433.91" type="building"/>
   <poly color="red" fill="1" id="111730973" layer="-1.00" shape="67.71,418.46 74.35,418.74 74.14,423.67 73.14,446.99 70.11,446.86 69.67,457.04 42.27,455.87 42.72,445.35 66.51,446.35 67.50,423.28 67.71,418.46" type="building"/>
   <poly color="207,245,201" fill="1" id="129345687" layer="-2.00" shape="8.10,580.97" type="leisure"/>
   <poly color="79,230,125" fill="1" id="129345687#1" layer="-2.00" shape="8.10,580.97" type="sport"/>
   <poly color="237,199,199" fill="1" id="136081420" layer="-1.00" shape="652.72,753.37 654.32,755.46 647.27,761.07 645.90,761.93 635.96,749.34 630.21,742.09 635.49,737.83 643.25,741.54 644.93,743.65 652.72,753.37" type="amenity"/>
   <poly color="red" fill="1" id="136081420#1" layer="-1.00" shape="652.72,753.37 654.32,755.46 647.27,761.07 645.90,761.93 635.96,749.34 630.21,742.09 635.49,737.83 643.25,741.54 644.93,743.65 652.72,753.37" type="building"/>
   <poly color="red" fill="1" id="136081421" layer="-1.00" shape="634.42,774.91 648.87,763.31 647.27,761.07 645.90,761.93 635.96,749.34 622.43,759.95 634.42,774.91" type="building"/>
   <poly color="140,196,107" fill="0" id="14132815" layer="-3.00" shape="87.94,733.22 91.23,754.53 60.34,802.30 36.69,815.54" type="forest"/>
   <poly color="140,196,107" fill="0" id="14133798" layer="-3.00" shape="609.96,19.41 506.29,83.51 471.45,19.61 550.78,7.28 562.27,3.97" type="forest"/>
   <poly color="207,245,201" fill="1" id="15084700" layer="-2.00" shape="18.82,587.66 21.12,599.86 14.26,601.41 10.82,607.95 18.82,587.66" type="leisure"/>
   <poly color="79,230,125" fill="1" id="15084700#1" layer="-2.00" shape="18.82,587.66 21.12,599.86 14.26,601.41 10.82,607.95 18.82,587.66" type="sport"/>
   <poly color="194,194,130" fill="0" id="15256339" layer="-3.00" shape="774.41,44.29 785.74,186.94 782.32,237.04 773.00,376.05 737.74,373.33 715.70,551.13 756.06,564.67 744.05,603.59 747.66,609.42 777.80,788.19" type="landuse"/>
   <poly color="red" fill="1" id="164244686" layer="-1.00" shape="540.78,627.75 553.49,620.04 552.01,617.91 552.06,609.01 537.71,608.74 537.61,611.09 540.31,613.29 538.85,615.32 537.88,617.99 537.67,621.03 538.59,623.45 540.78,627.75" type="building"/>
   <poly color="red" fill="1" id="164244687" layer="-1.00" shape="596.86,625.09 597.89,611.34 596.51,611.24 596.60,610.07 587.35,609.38 587.25,610.74 585.68,610.62 585.50,612.92 584.47,612.84 583.86,621.04 585.13,621.14 584.90,624.20 596.86,625.09" type="building"/>
   <poly color="red" fill="1" id="164244688" layer="-1.00" shape="733.36,799.23" type="building"/>
   <poly color="red" fill="1" id="164244689" layer="-1.00" shape="669.46,627.77 671.50,619.49 674.40,617.75 675.02,615.23 673.72,612.54 674.54,610.26 663.34,606.33 662.28,609.36 660.03,611.28 659.32,613.31 660.74,616.28 659.97,618.48 662.34,619.31 660.47,624.62 669.46,627.77" type="building"/>
   <poly color="red" fill="1" id="164244690" layer="-1.00" shape="727.86,771.18 730.74,771.75 731.82,766.33 728.93,765.76 727.86,771.18" type="building"/>
   <poly color="red" fill="1" id="164244691" layer="-1.00" shape="732.63,759.69 735.58,760.26 736.71,754.57 733.77,753.98 732.63,759.69" type="building"/>
   <poly color="red" fill="1" id="164244693" layer="-1.00" shape="707.07,693.31 710.33,684.00 700.74,680.65 697.47,689.97 707.07,693.31" type="building"/>
   <poly color="red" fill="1" id="164244696" layer="-1.00" shape="740.00,784.28 741.94,774.20 730.48,772.00 728.54,782.10 740.00,784.28" type="building"/>
   <poly color="red" fill="1" id="164244698" layer="-1.00" shape="691.59,688.75 694.73,679.67 686.66,676.90 683.52,685.98 691.59,688.75" type="building"/>
   <poly color="red" fill="1" id="164244699" layer="-1.00" shape="702.91,588.75 706.77,575.61 694.77,572.12 690.91,585.26 702.91,588.75" type="building"/>
   <poly color="red" fill="1" id="164244703" layer="-1.00" shape="710.60,520.82 712.08,507.64 696.63,505.92 695.15,519.10 710.60,520.82" type="building"/>
   <poly color="red" fill="1" id="164244705" layer="-1.00" shape="708.81,539.53 710.26,525.95 694.50,524.28 693.05,537.86 708.81,539.53" type="building"/>
   <poly color="red" fill="1" id="164244706" layer="-1.00" shape="758.32,637.96 763.07,624.79 751.64,620.69 746.89,633.86 758.32,637.96" type="building"/>
   <poly color="red" fill="1" id="164244709" layer="-1.00" shape="591.06,698.29 591.53,691.59 582.25,689.44 581.21,689.21 583.55,696.68 591.06,698.29" type="building"/>
   <poly color="red" fill="1" id="164244710" layer="-1.00" shape="538.90,576.75 537.71,608.74 552.06,609.01 552.73,577.71 538.90,576.75" type="building"/>
   <poly color="red" fill="1" id="164244711" layer="-1.00" shape="602.58,784.60 611.26,779.31 606.25,771.15 603.64,772.74 602.77,771.32 599.95,773.04 600.84,774.47 597.58,776.47 602.58,784.60" type="building"/>
   <poly color="red" fill="1" id="164244712" layer="-1.00" shape="730.29,620.18 732.97,610.54 716.81,606.08 714.14,615.72 730.29,620.18" type="building"/>
   <poly color="red" fill="1" id="164244713" layer="-1.00" shape="575.64,790.08 580.88,774.55 567.32,770.00 562.08,785.51 575.64,790.08" type="building"/>
   <poly color="red" fill="1" id="164244714" layer="-1.00" shape="571.71,707.34 563.15,693.28 553.92,698.89 562.48,712.93 571.71,707.34" type="building"/>
   <poly color="red" fill="1" id="164244715" layer="-1.00" shape="684.12,556.83 685.07,542.36 672.30,541.52 671.36,556.00 684.12,556.83" type="building"/>
   <poly color="red" fill="1" id="164244716" layer="-1.00" shape="683.61,721.95 687.46,712.39 679.97,709.38 676.12,718.95 683.61,721.95" type="building"/>
   <poly color="red" fill="1" id="164244718" layer="-1.00" shape="678.89,605.28 681.26,597.18 665.27,592.54 662.91,600.65 678.89,605.28" type="building"/>
   <poly color="red" fill="1" id="164244720" layer="-1.00" shape="556.92,692.69 561.94,689.72 557.38,682.06 552.37,685.04 556.92,692.69" type="building"/>
   <poly color="red" fill="1" id="164244721" layer="-1.00" shape="541.11,549.22 538.90,576.75 552.73,577.71 554.68,550.42 541.11,549.22" type="building"/>
   <poly color="red" fill="1" id="164244722" layer="-1.00" shape="703.95,736.43 708.02,726.35 691.98,719.92 687.92,730.01 703.95,736.43" type="building"/>
   <poly color="red" fill="1" id="164244723" layer="-1.00" shape="717.00,653.76 720.27,643.58 704.33,638.49 701.06,648.67 717.00,653.76" type="building"/>
   <poly color="red" fill="1" id="164244724" layer="-1.00" shape="538.52,506.46 539.20,502.74 543.02,503.44 544.07,497.76 531.00,495.36 529.27,504.75 538.52,506.46" type="building"/>
   <poly color="red" fill="1" id="164244725" layer="-1.00" shape="670.42,680.48 676.92,682.69 680.38,672.56 673.88,670.35 670.42,680.48" type="building"/>
   <poly color="red" fill="1" id="164244727" layer="-1.00" shape="608.44,524.36 609.34,516.79 608.05,516.64 608.87,509.82 602.09,509.01 601.35,515.21 600.18,515.07 599.21,523.26 608.44,524.36" type="building"/>
   <poly color="red" fill="1" id="164244728" layer="-1.00" shape="720.19,594.03 724.04,580.91 712.03,577.41 708.18,590.53 720.19,594.03" type="building"/>
   <poly color="red" fill="1" id="164244729" layer="-1.00" shape="715.30,666.44 717.27,660.58 705.09,656.52 703.13,662.38 715.30,666.44" type="building"/>
   <poly color="red" fill="1" id="164244730" layer="-1.00" shape="709.36,626.19 707.38,632.22 722.07,637.01 724.05,630.96 709.36,626.19" type="building"/>
   <poly color="red" fill="1" id="164244731" layer="-1.00" shape="730.88,731.31 733.85,731.15 733.54,725.69 730.57,725.86 730.88,731.31" type="building"/>
   <poly color="red" fill="1" id="164244732" layer="-1.00" shape="644.63,657.38 642.24,664.78 654.07,668.58 656.46,661.17 644.63,657.38" type="building"/>
   <poly color="red" fill="1" id="164244733" layer="-1.00" shape="730.70,683.04 733.77,682.84 733.41,677.41 730.34,677.61 730.70,683.04" type="building"/>
   <poly color="red" fill="1" id="164244735" layer="-1.00" shape="634.35,570.23 633.70,576.67 647.64,578.08 648.29,571.63 634.35,570.23" type="building"/>
   <poly color="red" fill="1" id="164244736" layer="-1.00" shape="554.68,550.42 556.69,522.20 544.07,520.90 541.11,549.22 554.68,550.42" type="building"/>
   <poly color="red" fill="1" id="164244738" layer="-1.00" shape="685.72,583.98 689.50,571.11 677.04,567.47 673.26,580.34 685.72,583.98" type="building"/>
   <poly color="red" fill="1" id="164244740" layer="-1.00" shape="746.89,633.86 742.41,646.29 753.84,650.39 758.32,637.96 746.89,633.86" type="building"/>
   <poly color="red" fill="1" id="164244742" layer="-1.00" shape="673.88,670.35 667.37,668.14 663.92,678.28 670.42,680.48 673.88,670.35" type="building"/>
   <poly color="red" fill="1" id="164244743" layer="-1.00" shape="635.01,563.78 634.35,570.23 648.29,571.63 648.94,565.18 635.01,563.78" type="building"/>
   <poly color="red" fill="1" id="164244744" layer="-1.00" shape="727.90,695.66 730.86,695.41 730.39,689.75 727.42,689.99 727.90,695.66" type="building"/>
   <poly color="red" fill="1" id="164244745" layer="-1.00" shape="612.61,802.39 613.09,801.91 609.17,797.99 612.61,802.39" type="building"/>
   <poly color="red" fill="1" id="164244747" layer="-1.00" shape="625.07,642.36 625.94,642.43 626.65,634.34 612.24,633.08 611.54,641.17 625.07,642.36" type="building"/>
   <poly color="red" fill="1" id="164244749" layer="-1.00" shape="531.64,519.39 533.05,510.84 524.29,508.44 522.68,518.24 530.26,519.23 531.64,519.39" type="building"/>
   <poly color="red" fill="1" id="164244750" layer="-1.00" shape="611.54,641.17 610.26,641.06 609.52,649.41 624.34,650.70 625.07,642.36 611.54,641.17" type="building"/>
   <poly color="red" fill="1" id="164244751" layer="-1.00" shape="617.94,663.39 618.80,663.51 619.90,655.46 605.58,653.50 604.47,661.55 617.94,663.39" type="building"/>
   <poly color="red" fill="1" id="164244752" layer="-1.00" shape="604.47,661.55 603.20,661.38 602.06,669.67 616.80,671.70 617.94,663.39 604.47,661.55" type="building"/>
   <poly color="red" fill="1" id="164244753" layer="-1.00" shape="532.64,556.51 533.48,548.60 517.78,547.23 517.54,555.14 532.64,556.51" type="building"/>
   <poly color="red" fill="1" id="164244754" layer="-1.00" shape="630.67,693.35 629.23,692.83 626.20,701.11 640.20,706.20 643.23,697.92 630.67,693.35" type="building"/>
   <poly color="red" fill="1" id="164244755" layer="-1.00" shape="651.30,635.15 648.98,642.51 662.11,646.61 664.42,639.25 660.90,638.16 651.30,635.15" type="building"/>
   <poly color="red" fill="1" id="164244756" layer="-1.00" shape="603.92,682.98 602.71,682.54 600.07,690.02 609.32,693.27 611.97,685.81 603.92,682.98" type="building"/>
   <poly color="red" fill="1" id="164244757" layer="-1.00" shape="648.94,565.18 649.59,558.74 647.14,558.49 635.66,557.33 635.01,563.78 648.94,565.18" type="building"/>
   <poly color="red" fill="1" id="164244758" layer="-1.00" shape="664.18,713.68 663.93,714.33 670.66,716.92 674.60,706.74 667.87,704.15 664.18,713.68" type="building"/>
   <poly color="red" fill="1" id="164244760" layer="-1.00" shape="656.46,661.17 658.77,654.03 644.89,649.57 642.57,656.72 644.63,657.38 656.46,661.17" type="building"/>
   <poly color="red" fill="1" id="164244762" layer="-1.00" shape="612.61,802.39" type="building"/>
   <poly color="red" fill="1" id="164244763" layer="-1.00" shape="660.90,638.16 663.44,630.08 652.33,626.61 649.80,634.69 651.30,635.15 660.90,638.16" type="building"/>
   <poly color="red" fill="1" id="164244764" layer="-1.00" shape="583.49,684.38 578.93,677.27 574.13,680.20 576.00,683.26 575.57,684.56 576.45,686.10 577.98,686.51 579.75,689.44 581.21,689.21 582.25,689.44 583.49,684.38" type="building"/>
   <poly color="red" fill="1" id="164244765" layer="-1.00" shape="611.97,685.81 613.08,686.20 615.77,678.59 606.61,675.36 603.92,682.98 611.97,685.81" type="building"/>
   <poly color="red" fill="1" id="164244768" layer="-1.00" shape="643.23,697.92 644.78,698.48 648.01,689.63 633.90,684.50 630.67,693.35 643.23,697.92" type="building"/>
   <poly color="red" fill="1" id="164244769" layer="-1.00" shape="647.14,558.49 648.19,548.10 649.33,536.93 637.85,535.78 635.66,557.33 647.14,558.49" type="building"/>
   <poly color="red" fill="1" id="164244770" layer="-1.00" shape="562.48,712.93 559.19,714.93 564.86,724.21 577.38,716.62 571.71,707.34 562.48,712.93" type="building"/>
   <poly color="red" fill="1" id="164244772" layer="-1.00" shape="661.43,701.00 661.73,700.23 655.16,697.70 651.25,707.78 657.82,710.33 661.43,701.00" type="building"/>
   <poly color="red" fill="1" id="164244773" layer="-1.00" shape="584.59,563.25 583.91,570.61 599.18,572.01 599.57,567.76 596.18,567.45 596.47,564.33 584.59,563.25" type="building"/>
   <poly color="red" fill="1" id="164244774" layer="-1.00" shape="756.82,727.63 758.61,717.64 746.71,715.52 745.73,720.99 748.06,721.41 747.25,725.92 756.82,727.63" type="building"/>
   <poly color="237,199,199" fill="1" id="164244775" layer="-1.00" shape="777.14,651.72 783.40,635.06 775.93,632.27 774.96,634.84 771.70,633.63 766.41,647.70 777.14,651.72" type="amenity"/>
   <poly color="red" fill="1" id="164244775#1" layer="-1.00" shape="777.14,651.72 783.40,635.06 775.93,632.27 774.96,634.84 771.70,633.63 766.41,647.70 777.14,651.72" type="building"/>
   <poly color="red" fill="1" id="164244776" layer="-1.00" shape="537.20,672.49 540.41,670.59 545.05,667.61 535.03,651.56 529.50,654.86 527.61,655.99 532.15,663.40 533.38,663.48 532.54,670.37 535.05,668.94 537.20,672.49" type="building"/>
   <poly color="red" fill="1" id="164244778" layer="-1.00" shape="751.65,753.15 750.06,762.76 761.57,764.65 762.44,759.40 759.49,758.91 760.21,754.55 751.65,753.15" type="building"/>
   <poly color="red" fill="1" id="164244779" layer="-1.00" shape="727.35,706.61 728.37,716.34 737.27,715.41 736.71,710.05 739.89,709.71 739.43,705.35 727.35,706.61" type="building"/>
   <poly color="red" fill="1" id="164244780" layer="-1.00" shape="533.73,605.24 534.27,596.90 530.85,596.68 525.00,587.39 518.21,591.56 526.45,605.12 533.73,605.24" type="building"/>
   <poly color="red" fill="1" id="164244782" layer="-1.00" shape="517.23,592.16 518.21,591.56 525.00,587.39 525.67,586.97 520.70,578.92 512.25,584.10 517.23,592.16" type="building"/>
   <poly color="red" fill="1" id="164244784" layer="-1.00" shape="631.99,523.37 633.33,512.83 624.13,511.67 623.80,514.31 617.50,513.52 616.49,521.40 631.99,523.37" type="building"/>
   <poly color="red" fill="1" id="164244786" layer="-1.00" shape="739.43,705.35 738.85,699.74 736.12,700.03 735.61,695.14 726.25,696.12 727.35,706.61 739.43,705.35" type="building"/>
   <poly color="red" fill="1" id="164244787" layer="-1.00" shape="596.47,564.33 596.75,561.25 599.90,561.54 600.26,557.55 585.24,556.18 584.59,563.25 596.47,564.33" type="building"/>
   <poly color="red" fill="1" id="164244788" layer="-1.00" shape="583.91,570.61 583.25,577.86 595.32,578.96 595.58,576.12 598.77,576.40 599.18,572.01 583.91,570.61" type="building"/>
   <poly color="red" fill="1" id="164244789" layer="-1.00" shape="744.68,599.32 746.76,591.67 741.16,590.16 742.52,585.16 728.16,581.27 724.72,593.91 744.68,599.32" type="building"/>
   <poly color="red" fill="1" id="164244791" layer="-1.00" shape="532.47,647.57 526.98,638.66 518.11,643.90 510.32,642.80 507.36,642.39 506.13,653.17 507.74,653.44 513.94,654.27 519.03,654.99 519.38,656.63 522.08,655.93 521.78,654.33 526.97,651.06 532.47,647.57" type="building"/>
   <poly color="red" fill="1" id="164244793" layer="-1.00" shape="742.08,741.40 741.73,735.92 738.99,736.10 738.67,731.20 729.29,731.80 729.96,742.19 742.08,741.40" type="building"/>
   <poly color="red" fill="1" id="164244794" layer="-1.00" shape="587.96,519.87 589.52,507.22 579.86,506.03 578.78,514.80 582.78,515.29 582.30,519.19 587.96,519.87" type="building"/>
   <poly color="red" fill="1" id="164244795" layer="-1.00" shape="656.17,524.15 656.85,517.39 649.55,516.66 649.74,514.74 641.23,513.89 640.36,522.57 656.17,524.15" type="building"/>
   <poly color="red" fill="1" id="164244796" layer="-1.00" shape="753.91,780.67 752.30,789.63 763.73,791.67 764.66,786.54 761.89,786.04 762.58,782.22 753.91,780.67" type="building"/>
   <poly color="red" fill="1" id="164244797" layer="-1.00" shape="729.96,742.19 730.61,752.08 739.53,751.51 739.18,746.12 742.37,745.91 742.08,741.40 729.96,742.19" type="building"/>
   <poly color="red" fill="1" id="164244798" layer="-1.00" shape="657.82,710.33 657.51,711.11 664.18,713.68 667.87,704.15 668.10,703.57 661.43,701.00 657.82,710.33" type="building"/>
   <poly color="red" fill="1" id="164244803" layer="-1.00" shape="583.01,767.80 590.22,746.06 578.49,725.37 565.05,733.10 574.25,748.18 569.34,763.34 583.01,767.80" type="building"/>
   <poly color="red" fill="1" id="164244806" layer="-1.00" shape="752.18,699.69 745.09,700.13 745.41,705.29 747.98,705.14 748.28,709.95 757.68,709.36 757.05,699.38 752.18,699.69" type="building"/>
   <poly color="red" fill="1" id="164244807" layer="-1.00" shape="768.58,671.92 771.13,671.79 770.86,666.50 767.95,666.64 767.71,662.09 757.62,662.61 758.13,672.46 768.58,671.92" type="building"/>
   <poly color="red" fill="0" id="164244809" layer="-1.00" shape="765.35,798.44 755.87,796.89" type="building"/>
   <poly color="red" fill="1" id="164244810" layer="-1.00" shape="757.05,699.38 761.87,699.08 761.21,688.52 749.05,689.28 749.39,694.75 751.87,694.60 752.18,699.69 757.05,699.38" type="building"/>
   <poly color="red" fill="1" id="164244811" layer="-1.00" shape="744.44,666.00 748.60,665.70 747.83,655.23 738.61,655.89 738.97,660.89 736.17,661.09 736.56,666.57 744.44,666.00" type="building"/>
   <poly color="red" fill="1" id="164244813" layer="-1.00" shape="533.73,548.63 534.15,543.35 526.63,542.66 527.21,538.82 519.55,537.85 517.78,547.23 533.48,548.60 533.73,548.63" type="building"/>
   <poly color="red" fill="1" id="164244814" layer="-1.00" shape="762.58,782.22 763.72,775.86 761.89,775.53 762.67,771.18 753.26,769.49 751.33,780.21 753.91,780.67 762.58,782.22" type="building"/>
   <poly color="red" fill="1" id="164244815" layer="-1.00" shape="747.25,725.92 746.38,730.75 749.66,731.33 748.77,736.31 758.18,737.99 759.94,728.19 756.82,727.63 747.25,725.92" type="building"/>
   <poly color="red" fill="1" id="164244817" layer="-1.00" shape="736.56,666.57 734.75,666.71 735.09,671.37 732.65,671.56 733.03,676.74 745.16,675.86 744.44,666.00 736.56,666.57" type="building"/>
   <poly color="red" fill="1" id="164244819" layer="-1.00" shape="523.49,576.17 533.82,576.76 534.23,569.57 524.20,569.01 524.34,566.59 513.58,565.99 513.03,575.58 523.49,576.17" type="building"/>
   <poly color="red" fill="1" id="164244821" layer="-1.00" shape="760.21,754.55 761.16,748.76 759.13,748.43 759.83,744.20 750.48,742.67 748.82,752.68 751.65,753.15 760.21,754.55" type="building"/>
   <poly color="red" fill="1" id="164244823" layer="-1.00" shape="758.13,672.46 756.55,672.55 757.08,682.85 766.09,682.38 765.81,677.10 768.84,676.95 768.58,671.92 758.13,672.46" type="building"/>
   <poly color="red" fill="1" id="164244825" layer="-1.00" shape="567.58,519.98 568.43,513.40 565.68,513.05 566.72,505.04 556.76,503.76 555.46,513.88 562.05,514.72 561.47,519.20 567.58,519.98" type="building"/>
   <poly color="red" fill="1" id="164244829" layer="-1.00" shape="622.71,605.47 621.80,605.15 614.30,626.03 621.79,628.70 622.43,626.91 629.06,629.28 633.97,615.63 635.92,610.19 622.71,605.47" type="building"/>
   <poly color="red" fill="1" id="164244830" layer="-1.00" shape="635.92,610.19 636.97,610.57 639.89,602.44 643.43,592.56 635.18,589.62 634.60,591.21 628.60,589.07 622.71,605.47 635.92,610.19" type="building"/>
   <poly color="red" fill="1" id="164244831" layer="-1.00" shape="593.18,546.76 596.18,547.02 595.94,549.83 600.16,550.19 601.43,535.42 594.20,534.81 593.18,546.76" type="building"/>
   <poly color="red" fill="1" id="164244833" layer="-1.00" shape="617.13,536.77 610.23,536.18 608.98,550.95 612.82,551.27 613.06,548.46 616.11,548.71 617.13,536.77" type="building"/>
   <poly color="red" fill="1" id="164244834" layer="-1.00" shape="527.21,538.82 528.16,532.87 529.06,532.98 530.09,527.01 529.19,526.83 530.26,519.23 522.68,518.24 519.55,537.85 527.21,538.82" type="building"/>
   <poly color="red" fill="1" id="164244835" layer="-1.00" shape="595.94,605.07 596.48,599.06 592.89,598.74 593.27,594.60 593.66,590.28 597.31,590.60 597.79,585.27 581.52,583.83 579.74,603.62 595.94,605.07" type="building"/>
   <poly color="184,184,179" fill="0" id="164244846" layer="-1.00" shape="675.18,770.12 680.06,769.72 677.10,741.26 664.05,726.33 656.27,733.53 650.34,738.86 665.61,757.62 648.96,770.76 651.37,797.60 646.39,800.90" type="parking"/>
   <poly color="207,245,201" fill="1" id="164244847" layer="-2.00" shape="622.59,564.83 623.43,557.05 608.71,555.45 607.86,563.24 622.59,564.83" type="leisure"/>
   <poly color="184,184,179" fill="1" id="164244849" layer="-1.00" shape="622.73,576.54 623.54,566.60 610.74,565.58 609.93,575.51 618.22,576.17 622.73,576.54" type="parking"/>
   <poly color="red" fill="1" id="164264550" layer="-1.00" shape="656.76,494.94 658.36,480.46 648.67,479.40 646.63,479.17 649.20,455.98 632.35,454.12 630.94,466.90 638.28,467.71 636.01,488.16 647.42,489.42 646.93,493.86 656.76,494.94" type="building"/>
   <poly color="red" fill="1" id="164264551" layer="-1.00" shape="527.57,668.83 528.27,663.18 516.59,662.35 516.02,667.42 527.57,668.83" type="building"/>
   <poly color="red" fill="1" id="164264554" layer="-1.00" shape="508.87,749.56 513.19,744.42 504.33,737.00 500.01,742.15 508.87,749.56" type="building"/>
   <poly color="red" fill="1" id="164264556" layer="-1.00" shape="451.22,580.97 452.60,570.50 439.96,568.85 438.59,579.32 451.22,580.97" type="building"/>
   <poly color="red" fill="1" id="164264558" layer="-1.00" shape="437.83,638.63 436.82,646.10 448.05,647.61 449.06,640.14 437.83,638.63" type="building"/>
   <poly color="red" fill="1" id="164264560" layer="-1.00" shape="418.81,489.19 414.07,481.46 406.07,486.34 410.80,494.07 418.81,489.19" type="building"/>
   <poly color="red" fill="1" id="164264562" layer="-1.00" shape="494.66,642.06 495.49,636.25 486.96,635.04 486.13,640.86 494.66,642.06" type="building"/>
   <poly color="red" fill="1" id="164264563" layer="-1.00" shape="485.74,586.15 486.98,577.55 477.89,576.25 476.65,584.85 485.74,586.15" type="building"/>