<?xml version="1.0" encoding="utf-8"?><!-- generated on 10/11/17 17:50:11 by SUMO polyconvert Version 0.25.0
<?xml version="1.0" encoding="UTF-8"?>

<configuration xmlns:xsi="http://www.w3.org/2001/XMLSchema-instance" xsi:noNamespaceSchemaLocation="http://sumo.dlr.de/xsd/polyconvertConfiguration.xsd">

    <input>
        <net-file value="BN_Tannenb_urban_800.net.xml"/>
        <osm-files value="BN_Tannenb_urban_800.osm"/>
        <type-file value="osmPolyconvert.typ.xml"/>
    </input>

    <output>
        <output-file value="BN_Tannenb_urban_800.poly.xml"/>
    </output>

    <projection>
        <proj.utm value="true"/>
    </projection>

    <processing>
        <poi-layer-offset value="5"/>
    </processing>

</configuration>
-->
<additional>
   <location convBoundary="-11.63,-24.73,945.89,917.36" netOffset="-362663.76,-5622922.57" origBoundary="7.053300,50.741802,7.066600,50.750099" projParameter="+proj=utm +zone=32 +ellps=WGS84 +datum=WGS84 +units=m +no_defs"/>
   <poly color="235,235,227" fill="1" id="107213973" layer="-3.00" shape="199.82,458.03 317.33,431.27 393.91,408.94 454.72,389.30 478.88,380.21 655.55,316.38 675.18,308.30 714.22,293.02 724.68,282.66 773.48,264.50 815.03,242.77 822.32,207.59 815.78,151.56 792.42,152.00 772.20,36.18 749.24,15.56 742.95,15.85 736.00,15.26 724.49,11.69 694.41,34.97 720.90,104.59 712.07,171.71 704.78,188.50 698.62,194.34 675.88,210.69 653.69,223.95 649.13,216.60 620.13,229.38 586.58,246.55 578.73,244.31 514.43,273.63 410.10,332.11 363.30,350.27 305.55,357.84 262.08,355.22 217.23,340.19 192.81,326.41 214.69,382.67 222.04,416.89 221.88,429.20 219.51,436.11 213.65,445.13 199.82,458.03" type="residential"/>
   <poly color="red" fill="1" id="107213975" layer="-1.00" shape="772.89,23.32 776.58,22.76 777.46,28.47 773.76,29.04 772.89,23.32" type="building"/>
   <poly color="red" fill="1" id="107213975#1" layer="-1.00" shape="772.89,23.32 776.58,22.76 777.46,28.47 773.76,29.04 772.89,23.32" type="building"/>
   <poly color="194,194,130" fill="0" id="124280377" layer="-3.00" shape="186.03,-6.36 162.46,1.82 133.03,8.34 140.43,25.10" type="landuse"/>
   <poly color="194,194,130" fill="0" id="124327917" layer="-3.00" shape="140.43,25.10 0.93,78.73 10.39,94.29" type="landuse"/>
   <poly color="red" fill="1" id="126468490" layer="-1.00" shape="931.33,368.14 932.40,362.17 933.26,357.76 931.33,368.14" type="building"/>
   <poly color="red" fill="1" id="126596679" layer="-1.00" shape="903.13,394.20 905.29,384.59 917.25,387.34 916.05,392.44 914.96,396.94 903.13,394.20" type="building"/>
   <poly color="red" fill="1" id="126596680" layer="-1.00" shape="897.03,394.76 896.95,395.06 890.76,393.63 893.48,381.86 905.29,384.59 903.12,394.21 900.21,393.54 899.87,395.05 899.78,395.39 897.03,394.76" type="building"/>
   <poly color="red" fill="1" id="126598031" layer="-1.00" shape="923.58,401.97 923.82,401.04 920.24,400.14 922.68,390.58 933.40,393.38 930.85,402.90 930.59,403.81 923.58,401.97" type="building"/>
   <poly color="red" fill="1" id="126598033" layer="-1.00" shape="930.85,402.90 933.41,393.38 930.85,402.90" type="building"/>
   <poly color="237,199,255" fill="1" id="126598033#1" layer="-1.00" shape="930.85,402.90 933.41,393.38 930.85,402.90" type="shop"/>
   <poly color="red" fill="1" id="135160037" layer="-1.00" shape="896.97,-5.52 897.95,-24.73 912.74,-23.99 912.33,-15.98 905.79,-16.30 905.21,-5.10 896.97,-5.52" type="building"/>
   <poly color="237,199,199" fill="0" id="137357367" layer="-1.00" shape="95.22,512.92 106.02,549.62 180.33,551.80 194.76,547.76 196.60,544.11 188.78,513.34 187.71,497.60 187.28,460.57 216.34,430.18 212.95,418.01 198.93,373.80 192.97,356.21 137.19,370.49 136.11,367.06" type="amenity"/>
   <poly color="237,199,199" fill="0" id="137357368" layer="-1.00" shape="95.22,512.92 107.08,506.23 113.02,500.45 118.09,493.00 119.84,487.60 121.07,482.01 121.17,446.68 101.59,375.91 136.11,367.06" type="amenity"/>
   <poly color="red" fill="1" id="139008251" layer="-1.00" shape="45.98,111.06 49.90,124.61 55.49,143.83 47.68,146.33 44.22,134.61 29.63,138.90 24.04,119.80 45.98,111.06" type="building"/>
   <poly color="red" fill="1" id="139461493" layer="-1.00" shape="60.19,264.72 55.51,247.73 43.36,251.07 48.04,268.06 60.19,264.72" type="building"/>
   <poly color="red" fill="1" id="139461494" layer="-1.00" shape="64.87,281.71 60.19,264.72 48.04,268.06 52.73,285.04 64.87,281.71" type="building"/>
   <poly color="red" fill="1" id="139461495" layer="-1.00" shape="15.87,327.13 10.01,330.29 15.35,340.11 21.21,336.96 15.87,327.13" type="building"/>
   <poly color="red" fill="1" id="139461496" layer="-1.00" shape="21.87,323.90 15.87,327.13 21.21,336.96 27.19,333.72 26.06,331.63 21.87,323.90" type="building"/>
   <poly color="red" fill="1" id="139461497" layer="-1.00" shape="27.70,318.83 21.06,322.42 21.87,323.90 26.06,331.63 32.70,328.05 27.70,318.83" type="building"/>
   <poly color="red" fill="1" id="139461498" layer="-1.00" shape="34.60,315.11 27.70,318.83 32.70,328.05 39.60,324.32 34.60,315.11" type="building"/>
   <poly color="red" fill="0" id="139461499" layer="-1.00" shape="2.28,348.26 7.46,345.25" type="building"/>
   <poly color="red" fill="1" id="139551106" layer="-1.00" shape="108.13,318.48 80.15,324.56 78.85,318.65 106.83,312.56 108.13,318.48" type="building"/>
   <poly color="red" fill="1" id="139551109" layer="-1.00" shape="85.62,307.85 84.40,302.32 103.65,298.14 104.86,303.66 85.62,307.85" type="building"/>
   <poly color="red" fill="1" id="139551121" layer="-1.00" shape="90.66,284.13 105.62,279.87 103.40,272.06 98.44,273.47 97.89,271.54 92.69,273.02 93.26,275.00 90.61,275.76 91.54,279.04 89.39,279.66 90.66,284.13" type="building"/>
   <poly color="red" fill="1" id="139551133" layer="-1.00" shape="120.67,312.19 111.30,277.53 106.52,278.81 108.35,285.56 103.79,286.80 107.11,299.07 111.69,297.84 114.62,308.66 109.81,309.96 111.11,314.76 120.67,312.19" type="building"/>
   <poly color="207,245,201" fill="1" id="139551157" layer="-2.00" shape="96.94,395.52 84.66,351.74 89.70,350.33 101.98,394.11 96.94,395.52" type="leisure"/>
   <poly color="79,230,125" fill="1" id="139551157#1" layer="-2.00" shape="96.94,395.52 84.66,351.74 89.70,350.33 101.98,394.11 96.94,395.52" type="sport"/>
   <poly color="207,245,201" fill="1" id="139551163" layer="-2.00" shape="105.70,370.25 101.84,356.10 124.95,349.80 128.82,363.97 105.70,370.25" type="leisure"/>
   <poly color="red" fill="1" id="139555014" layer="-1.00" shape="341.65,455.73 346.87,454.78 344.83,443.57 339.61,444.51 341.65,455.73" type="building"/>
   <poly color="red" fill="1" id="139555018" layer="-1.00" shape="367.74,451.01 372.96,450.06 370.92,438.84 365.70,439.79 367.74,451.01" type="building"/>
   <poly color="red" fill="1" id="139555019" layer="-1.00" shape="362.52,451.94 367.74,451.01 365.70,439.79 360.48,440.74 362.52,451.94" type="building"/>
   <poly color="red" fill="1" id="139555020" layer="-1.00" shape="357.30,452.89 362.52,451.94 360.48,440.74 355.26,441.68 357.30,452.89" type="building"/>
   <poly color="red" fill="1" id="139555021" layer="-1.00" shape="352.09,453.84 357.30,452.89 355.26,441.68 350.04,442.63 352.09,453.84" type="building"/>
   <poly color="red" fill="1" id="139555022" layer="-1.00" shape="346.87,454.78 352.09,453.84 350.04,442.63 344.83,443.57 346.87,454.78" type="building"/>
   <poly color="red" fill="1" id="140941093" layer="-1.00" shape="344.83,245.38 348.29,255.63 367.59,249.13 364.12,238.89 344.83,245.38" type="building"/>
   <poly color="red" fill="1" id="140941096" layer="-1.00" shape="261.14,267.07 336.18,260.12 337.01,269.01 261.97,275.96 261.14,267.07" type="building"/>
   <poly color="red" fill="1" id="144007635" layer="-1.00" shape="142.69,877.48 140.82,871.78 144.68,870.52 150.04,868.78 151.31,868.35 153.18,874.07 142.69,877.48" type="building"/>
   <poly color="red" fill="1" id="144007638" layer="-1.00" shape="146.52,882.88 144.68,883.48 142.69,877.48 153.18,874.07 155.16,880.04 146.52,882.88" type="building"/>
   <poly color="red" fill="1" id="144007640" layer="-1.00" shape="148.53,888.96 146.52,882.88 155.16,880.04 156.92,879.46 158.93,885.53 148.53,888.96" type="building"/>
   <poly color="red" fill="1" id="144007644" layer="-1.00" shape="150.39,894.58 148.53,888.96 158.93,885.53 160.79,891.16 158.98,891.75 150.39,894.58" type="building"/>
   <poly color="red" fill="1" id="144007647" layer="-1.00" shape="150.49,901.03 148.56,895.19 150.39,894.58 158.98,891.75 160.91,897.61 150.49,901.03" type="building"/>
   <poly color="red" fill="1" id="144007649" layer="-1.00" shape="152.44,906.92 150.49,901.03 160.91,897.61 162.86,903.49 152.44,906.92" type="building"/>
   <poly color="red" fill="1" id="146501960" layer="-1.00" shape="20.68,634.63 42.13,635.34 41.77,646.07 20.32,645.36 20.68,634.63" type="building"/>
   <poly color="red" fill="0" id="146501961" layer="-1.00" shape="20.68,634.63 20.32,645.36" type="building"/>
   <poly color="red" fill="1" id="146501975" layer="-1.00" shape="17.79,594.08 33.95,594.64 33.56,605.91 17.40,605.35 17.79,594.08" type="building"/>
   <poly color="red" fill="0" id="146501977" layer="-1.00" shape="17.79,594.08 17.40,605.35" type="building"/>
   <poly color="red" fill="1" id="146501984" layer="-1.00" shape="2.83,553.30 24.58,554.31 24.09,564.90 2.34,563.91 2.83,553.30" type="building"/>
   <poly color="235,235,227" fill="1" id="14870779" layer="-3.00" shape="296.89,255.81 244.28,267.50 232.69,260.41 222.83,251.99 219.60,247.42 209.85,229.01 237.36,212.59 245.19,208.07 267.43,193.99 303.24,183.97 355.86,177.79 383.09,176.01 409.74,173.35 395.38,107.97 416.20,104.12 436.74,214.25 374.32,239.91 367.83,230.08 335.35,239.68 334.15,258.36 296.89,255.81" type="residential"/>
   <poly color="207,245,201" fill="1" id="14870779#1" layer="-2.00" shape="296.89,255.81 244.28,267.50 232.69,260.41 222.83,251.99 219.60,247.42 209.85,229.01 237.36,212.59 245.19,208.07 267.43,193.99 303.24,183.97 355.86,177.79 383.09,176.01 409.74,173.35 395.38,107.97 416.20,104.12 436.74,214.25 374.32,239.91 367.83,230.08 335.35,239.68 334.15,258.36 296.89,255.81" type="tourism"/>
   <poly color="red" fill="1" id="161233147" layer="-1.00" shape="162.53,404.87 176.80,404.37 176.66,400.18 175.39,400.23 175.19,394.35 168.09,394.59 168.19,397.28 162.27,397.49 162.53,404.87" type="building"/>
   <poly color="red" fill="1" id="161617231" layer="-1.00" shape="113.79,680.07 155.30,689.42 153.98,695.25 112.47,685.90 113.79,680.07" type="building"/>
   <poly color="red" fill="1" id="161617232" layer="-1.00" shape="107.26,678.54 99.91,677.31 102.22,718.40 178.00,703.80 176.58,697.01 107.16,711.07 106.10,684.92 107.26,678.54" type="building"/>
   <poly color="red" fill="1" id="161617274" layer="-1.00" shape="16.70,483.78 23.04,484.51 20.70,476.03 17.99,466.96 12.47,468.49 16.70,483.78" type="building"/>
   <poly color="red" fill="1" id="161617828" layer="-1.00" shape="248.89,648.86 301.81,653.36 301.34,659.14 248.29,653.92 248.89,648.86" type="building"/>
   <poly color="red" fill="1" id="161617829" layer="-1.00" shape="257.82,684.79 256.44,679.20 316.89,663.05 317.37,654.56 327.82,655.52 330.15,664.86 257.82,684.79" type="building"/>
   <poly color="red" fill="1" id="161617835" layer="-1.00" shape="218.94,686.60 218.68,648.17 225.26,648.13 225.28,649.78 228.12,649.76 228.10,647.92 236.39,647.85 236.66,686.25 229.04,686.31 229.03,684.44 225.92,684.47 225.93,686.55 218.94,686.60" type="building"/>
   <poly color="red" fill="1" id="161617837" layer="-1.00" shape="404.74,643.17 478.65,618.78 477.59,608.78 404.26,606.56 404.11,612.94 410.34,613.09 410.55,615.00 447.60,615.94 447.62,610.52 465.99,610.99 466.08,614.50 402.31,635.43 404.74,643.17" type="building"/>
   <poly color="red" fill="1" id="161617839" layer="-1.00" shape="606.72,557.94 614.37,558.08 614.32,567.72 546.66,594.16 544.17,587.54 606.32,564.89 606.72,557.94" type="building"/>
   <poly color="red" fill="1" id="161617840" layer="-1.00" shape="585.51,557.85 585.38,564.29 540.28,563.40 540.41,556.95 585.51,557.85" type="building"/>
   <poly color="red" fill="1" id="161617841" layer="-1.00" shape="538.04,567.33 543.52,586.48 538.58,587.88 533.09,568.73 538.04,567.33" type="building"/>
   <poly color="red" fill="1" id="161617845" layer="-1.00" shape="697.16,535.73 695.19,530.03 748.22,511.67 746.55,506.86 749.53,506.94 752.83,516.47 697.16,535.73" type="building"/>
   <poly color="red" fill="1" id="161656296" layer="-1.00" shape="384.27,750.06 384.38,753.29 390.36,753.09 390.25,749.86 384.27,750.06" type="building"/>
   <poly color="red" fill="1" id="161656317" layer="-1.00" shape="314.26,747.27 313.39,744.53 318.78,742.82 319.65,745.55 314.26,747.27" type="building"/>
   <poly color="red" fill="1" id="161656320" layer="-1.00" shape="315.20,701.94 316.05,704.66 321.45,702.96 320.59,700.24 315.20,701.94" type="building"/>
   <poly color="red" fill="1" id="161656322" layer="-1.00" shape="313.63,726.72 312.76,723.99 307.43,725.67 308.30,728.41 313.63,726.72" type="building"/>
   <poly color="red" fill="1" id="161658920" layer="-1.00" shape="405.59,863.52 404.72,860.84 409.98,859.16 410.85,861.84 405.59,863.52" type="building"/>
   <poly color="red" fill="1" id="161658921" layer="-1.00" shape="420.81,863.36 421.69,866.14 427.05,864.46 426.17,861.68 420.81,863.36" type="building"/>
   <poly color="red" fill="1" id="161658922" layer="-1.00" shape="419.22,859.05 418.38,856.34 424.08,854.56 424.92,857.26 419.22,859.05" type="building"/>
   <poly color="red" fill="1" id="161658923" layer="-1.00" shape="418.97,838.31 419.82,841.02 425.19,839.34 424.33,836.64 418.97,838.31" type="building"/>
   <poly color="red" fill="1" id="161658926" layer="-1.00" shape="411.31,863.24 412.19,866.03 406.80,867.72 405.93,864.93 411.31,863.24" type="building"/>
   <poly color="red" fill="1" id="161658930" layer="-1.00" shape="359.35,867.57 357.60,862.03 340.84,867.32 342.60,872.86 359.35,867.57" type="building"/>
   <poly color="red" fill="1" id="161658939" layer="-1.00" shape="301.31,892.31 299.57,886.80 288.90,890.15 277.89,893.61 280.99,903.44 302.68,896.63 301.31,892.31" type="building"/>
   <poly color="red" fill="1" id="161658940" layer="-1.00" shape="299.57,886.80 297.55,880.40 306.69,877.53 324.80,871.84 334.25,868.87 338.01,880.77 301.31,892.31 299.57,886.80" type="building"/>
   <poly color="red" fill="1" id="161663062" layer="-1.00" shape="77.49,749.75 78.47,752.85 70.75,755.27 69.77,752.17 77.49,749.75" type="building"/>
   <poly color="red" fill="1" id="161663063" layer="-1.00" shape="120.39,799.16 123.10,798.30 121.44,793.10 118.73,793.96 120.39,799.16" type="building"/>
   <poly color="red" fill="1" id="161663067" layer="-1.00" shape="115.89,785.44 118.60,784.57 116.91,779.27 114.19,780.14 115.89,785.44" type="building"/>
   <poly color="207,245,201" fill="1" id="161663078" layer="-2.00" shape="201.88,769.07 178.81,776.52 176.62,779.90 181.27,794.08 206.91,785.56 201.88,769.07" type="leisure"/>
   <poly color="red" fill="1" id="161663084" layer="-1.00" shape="50.19,762.50 48.32,756.83 37.58,760.34 39.45,766.02 50.19,762.50" type="building"/>
   <poly color="red" fill="1" id="161663086" layer="-1.00" shape="52.13,768.40 50.19,762.50 39.45,766.02 41.39,771.91 42.45,771.56 52.13,768.40" type="building"/>
   <poly color="red" fill="1" id="161663089" layer="-1.00" shape="55.19,773.83 53.28,768.01 52.13,768.40 42.45,771.56 44.36,777.37 55.19,773.83" type="building"/>
   <poly color="red" fill="1" id="161663090" layer="-1.00" shape="57.10,779.64 55.19,773.83 44.36,777.37 46.27,783.17 57.10,779.64" type="building"/>
   <poly color="red" fill="1" id="161663095" layer="-1.00" shape="49.08,791.72 48.20,789.02 55.38,786.67 56.27,789.38 49.08,791.72" type="building"/>
   <poly color="red" fill="0" id="161663125" layer="-1.00" shape="217.94,912.44 228.96,908.90 250.63,901.95 260.84,898.68 264.45,909.80" type="building"/>
   <poly color="207,245,201" fill="0" id="161668084" layer="-2.00" shape="17.13,692.64 17.90,668.51" type="leisure"/>
   <poly color="242,242,204" fill="1" id="161668085" layer="-3.00" shape="17.61,728.03 17.13,692.64 17.90,668.51 18.23,652.73 40.20,653.72 58.80,657.43 59.83,661.72 60.03,669.21 59.11,677.87 54.68,700.02 53.49,706.41 51.89,714.63 51.30,726.92 33.99,727.38 17.61,728.03" type="farm"/>
   <poly color="red" fill="1" id="161671856" layer="-1.00" shape="48.47,817.24 47.58,814.49 42.42,816.15 43.30,818.89 48.47,817.24" type="building"/>
   <poly color="red" fill="1" id="161671857" layer="-1.00" shape="58.13,817.69 57.22,814.91 62.57,813.17 63.47,815.96 58.13,817.69" type="building"/>
   <poly color="red" fill="1" id="161671858" layer="-1.00" shape="60.70,807.47 63.38,806.60 61.68,801.39 60.16,801.89 59.00,802.27 60.70,807.47" type="building"/>
   <poly color="red" fill="1" id="161674721" layer="-1.00" shape="183.34,757.60 181.41,751.60 191.02,748.53 193.14,747.85 195.07,753.84 183.34,757.60" type="building"/>
   <poly color="red" fill="1" id="161674722" layer="-1.00" shape="175.52,740.77 177.42,746.67 189.21,742.90 187.31,736.98 185.51,737.57 176.97,740.31 175.52,740.77" type="building"/>
   <poly color="red" fill="1" id="161674723" layer="-1.00" shape="177.42,746.67 179.23,752.30 181.41,751.60 191.02,748.53 189.21,742.90 177.42,746.67" type="building"/>
   <poly color="red" fill="1" id="161674725" layer="-1.00" shape="183.52,731.41 185.51,737.57 176.97,740.31 174.98,734.15 183.52,731.41" type="building"/>
   <poly color="red" fill="1" id="162156004" layer="-1.00" shape="887.58,422.89 889.44,414.85 897.44,416.68 895.57,424.71 887.58,422.89" type="building"/>
   <poly color="red" fill="1" id="162156005" layer="-1.00" shape="881.93,445.94 883.86,437.32 892.78,439.31 890.86,447.93 881.93,445.94" type="building"/>
   <poly color="red" fill="1" id="162156006" layer="-1.00" shape="876.78,469.56 878.69,460.94 887.61,462.90 885.70,471.52 876.78,469.56" type="building"/>
   <poly color="red" fill="1" id="162156007" layer="-1.00" shape="879.51,494.60 881.42,486.01 890.59,488.04 888.68,496.62 879.51,494.60" type="building"/>
   <poly color="red" fill="1" id="162156008" layer="-1.00" shape="859.47,386.10 861.28,377.92 868.40,379.49 866.60,387.67 859.47,386.10" type="building"/>
   <poly color="red" fill="1" id="162156009" layer="-1.00" shape="853.30,413.94 855.08,405.85 856.47,406.13 862.19,407.41 860.40,415.51 853.30,413.94" type="building"/>
   <poly color="red" fill="1" id="162156010" layer="-1.00" shape="845.68,408.00 847.20,401.07 857.10,403.25 856.47,406.13 855.08,405.85 854.18,409.87 845.68,408.00" type="building"/>
   <poly color="red" fill="1" id="162156011" layer="-1.00" shape="842.69,423.15 844.10,416.69 852.26,418.49 851.49,422.15 853.08,422.51 852.47,425.30 842.69,423.15" type="building"/>
   <poly color="red" fill="1" id="162156012" layer="-1.00" shape="847.06,441.76 848.84,433.66 855.94,435.21 854.16,443.33 847.06,441.76" type="building"/>
   <poly color="red" fill="1" id="162156013" layer="-1.00" shape="834.91,441.71 839.00,442.59 840.30,437.13 835.76,436.34 834.91,441.71" type="building"/>
   <poly color="red" fill="1" id="162156014" layer="-1.00" shape="840.96,460.93 842.38,454.97 836.82,453.63 831.54,452.36 830.11,458.32 840.96,460.93" type="building"/>
   <poly color="red" fill="1" id="162156015" layer="-1.00" shape="842.38,454.97 843.87,448.81 838.30,447.49 836.82,453.63 842.38,454.97" type="building"/>
   <poly color="red" fill="1" id="162156016" layer="-1.00" shape="836.69,470.36 838.49,462.18 845.55,463.74 843.74,471.92 836.69,470.36" type="building"/>
   <poly color="red" fill="1" id="162156017" layer="-1.00" shape="828.83,482.69 829.59,479.16 836.01,480.54 835.24,484.07 828.83,482.69" type="building"/>
   <poly color="red" fill="1" id="162156018" layer="-1.00" shape="803.00,501.24 801.13,495.88 803.97,494.89 805.84,500.25 803.00,501.24" type="building"/>
   <poly color="red" fill="1" id="162156019" layer="-1.00" shape="807.35,481.68 805.61,478.04 808.11,476.84 809.85,480.48 807.35,481.68" type="building"/>
   <poly color="red" fill="1" id="162156020" layer="-1.00" shape="809.86,480.48 808.12,476.84 810.43,475.73 812.17,479.37 809.86,480.48" type="building"/>
   <poly color="red" fill="1" id="162156021" layer="-1.00" shape="776.73,403.04 776.35,396.38 790.24,392.52 791.77,398.05 790.28,398.65 790.49,402.24 788.89,402.36 776.73,403.04" type="building"/>
   <poly color="194,194,130" fill="0" id="178289484" layer="-3.00" shape="114.23,-2.53 119.74,11.58 38.33,42.78 20.08,7.78" type="landuse"/>
   <poly color="194,194,130" fill="1" id="178289487" layer="-3.00" shape="140.07,-0.01" type="landuse"/>
   <poly color="209,209,204" fill="1" id="178289490" layer="-3.00" shape="-11.63,60.58" type="commercial"/>
   <poly color="140,196,107" fill="0" id="178289531" layer="-4.00" shape="127.22,-3.86 133.03,8.34 162.46,1.82 186.03,-6.36 140.07,-0.01" type="natural"/>
   <poly color="140,196,107" fill="1" id="178289551" layer="-4.00" shape="20.08,7.78" type="natural"/>
   <poly color="red" fill="1" id="194463735" layer="-1.00" shape="737.58,324.59 736.32,318.78 739.13,318.16 741.11,323.82 737.58,324.59" type="building"/>
   <poly color="red" fill="1" id="194463738" layer="-1.00" shape="738.84,317.30 736.67,311.08 739.99,309.93 742.16,316.14 738.84,317.30" type="building"/>
   <poly color="red" fill="1" id="194463744" layer="-1.00" shape="769.93,349.33 769.24,342.25 772.31,341.95 773.01,349.03 769.93,349.33" type="building"/>
   <poly color="red" fill="1" id="194463746" layer="-1.00" shape="799.08,348.20 799.16,341.22 802.39,340.93 802.25,347.93 799.08,348.20" type="building"/>
   <poly color="red" fill="1" id="194463750" layer="-1.00" shape="834.43,348.18 835.70,342.44 838.63,343.08 837.35,348.83 834.43,348.18" type="building"/>
   <poly color="red" fill="1" id="194463753" layer="-1.00" shape="829.29,315.98 830.56,310.27 834.01,311.04 832.76,316.74 829.29,315.98" type="building"/>
   <poly color="red" fill="1" id="194463756" layer="-1.00" shape="814.59,312.41 815.55,305.92 819.71,306.72 818.50,313.16 814.59,312.41" type="building"/>
   <poly color="red" fill="1" id="194463765" layer="-1.00" shape="788.51,301.82 788.66,297.07 795.92,297.31 795.78,302.05 788.51,301.82" type="building"/>
   <poly color="red" fill="1" id="194463766" layer="-1.00" shape="842.97,311.64 843.85,307.63 846.36,308.19 845.49,312.19 842.97,311.64" type="building"/>
   <poly color="red" fill="1" id="194463767" layer="-1.00" shape="845.49,312.19 846.38,308.19 848.98,308.76 848.09,312.77 845.49,312.19" type="building"/>
   <poly color="237,199,199" fill="1" id="20048996" layer="-1.00" shape="585.16,11.00 588.83,10.54 636.14,4.54 680.84,-0.33 557.79,17.59 585.16,11.00" type="amenity"/>
   <poly color="184,184,179" fill="1" id="20049401" layer="-1.00" shape="174.84,65.66 176.55,71.57 183.88,97.03 179.69,98.22 182.35,107.50 186.54,106.31 186.84,107.34 188.97,106.73 200.40,103.47 201.30,106.59 207.95,104.69 212.04,116.59 177.49,128.17 159.01,70.97 174.84,65.66" type="parking"/>
   <poly color="207,245,201" fill="1" id="20050382" layer="-2.00" shape="45.45,459.14 20.74,368.29 83.13,351.40 107.84,442.26 45.45,459.14" type="leisure"/>
   <poly color="79,230,125" fill="1" id="20050382#1" layer="-2.00" shape="45.45,459.14 20.74,368.29 83.13,351.40 107.84,442.26 45.45,459.14" type="sport"/>
   <poly color="red" fill="1" id="226152766" layer="-1.00" shape="920.53,893.15 933.48,886.17 927.05,877.34 915.83,883.62 920.53,893.15" type="building"/>
   <poly color="red" fill="1" id="226152768" layer="-1.00" shape="897.62,864.38 885.79,873.04 891.52,880.83 903.36,872.18 897.62,864.38" type="building"/>
   <poly color="red" fill="1" id="226152770" layer="-1.00" shape="908.16,877.10 893.24,888.22 915.92,887.46 908.16,877.10" type="building"/>
   <poly color="140,196,107" fill="0" id="232751824" layer="-3.00" shape="463.98,873.22 442.91,852.39 428.86,867.81 407.56,874.87 404.45,864.34 281.16,907.70" type="forest"/>
   <poly color="red" fill="1" id="245731899" layer="-1.00" shape="37.57,168.13 54.74,163.10 57.59,172.79 30.99,180.56 29.68,176.09 39.10,173.33 37.57,168.13" type="building"/>
   <poly color="237,199,199" fill="0" id="245731902" layer="-1.00" shape="21.20,238.99 -3.42,226.75" type="amenity"/>
   <poly color="red" fill="1" id="245731914" layer="-1.00" shape="-7.60,172.42 -1.37,193.19 5.73,191.06 0.11,172.27 17.77,167.01 7.32,131.14 -7.60,172.42" type="building"/>
   <poly color="184,184,179" fill="1" id="245731917" layer="-1.00" shape="221.78,110.75 259.90,98.99 288.75,93.96 287.43,86.78 234.35,94.79 233.80,91.93 216.48,95.19 221.78,110.75" type="parking"/>
   <poly color="red" fill="1" id="245766162" layer="-1.00" shape="698.05,193.80 704.45,188.34 701.00,184.32 694.61,189.76 698.05,193.80" type="building"/>
   <poly color="red" fill="1" id="245766163" layer="-1.00" shape="658.33,211.00 663.92,207.82 651.53,186.23 645.95,189.42 658.33,211.00" type="building"/>
   <poly color="red" fill="1" id="245766165" layer="-1.00" shape="702.96,-12.70 705.77,-13.03 705.13,-18.61 702.31,-18.28 702.96,-12.70" type="building"/>
   <poly color="red" fill="1" id="245766166" layer="-1.00" shape="699.60,181.58 704.54,177.47 688.58,158.36 683.63,162.48 699.60,181.58" type="building"/>
   <poly color="red" fill="1" id="245766167" layer="-1.00" shape="686.56,192.35 691.78,188.60 677.16,168.44 671.95,172.21 686.56,192.35" type="building"/>
   <poly color="red" fill="1" id="245766168" layer="-1.00" shape="671.71,203.34 677.30,200.15 664.92,178.56 659.33,181.75 671.71,203.34" type="building"/>
   <poly color="red" fill="1" id="245766170" layer="-1.00" shape="653.58,222.96 661.13,218.89 658.57,214.15 651.02,218.22 653.58,222.96" type="building"/>
   <poly color="red" fill="1" id="245766171" layer="-1.00" shape="668.45,214.56 675.84,210.21 673.15,205.65 665.75,210.01 668.45,214.56" type="building"/>
   <poly color="red" fill="1" id="245766173" layer="-1.00" shape="502.10,151.79 508.19,149.18 501.58,133.82 495.49,136.43 502.10,151.79" type="building"/>
   <poly color="red" fill="1" id="245766174" layer="-1.00" shape="574.13,226.68 592.71,219.51 590.70,214.34 572.12,221.52 574.13,226.68" type="building"/>
   <poly color="red" fill="1" id="245766175" layer="-1.00" shape="522.18,126.50 519.76,121.06 504.44,127.83 506.86,133.27 522.18,126.50" type="building"/>
   <poly color="red" fill="1" id="245766176" layer="-1.00" shape="594.14,218.10 619.58,227.92 647.95,215.75 638.55,193.14 632.38,196.14 639.64,213.04 619.13,221.41 596.63,212.00 594.14,218.10" type="building"/>
   <poly color="184,184,179" fill="1" id="245766195" layer="-1.00" shape="245.64,276.96 246.74,272.93 239.79,268.37 229.89,260.95 221.39,253.16 214.99,244.12 207.65,232.15 202.67,221.13 198.72,208.29 195.20,191.96 190.15,193.09 193.92,209.28 198.61,222.17 203.66,233.32 210.95,245.96 218.17,255.52 226.75,263.84 237.15,272.11 245.64,276.96" type="parking"/>
   <poly color="184,184,179" fill="1" id="245766196" layer="-1.00" shape="518.50,201.00 524.76,202.31 535.98,193.80 545.03,186.76 553.84,177.85 561.70,168.83 567.92,160.86 573.13,152.91 576.82,145.34 579.63,134.98 581.48,123.91 580.94,113.57 579.14,96.00 577.31,77.37 572.22,78.18 576.76,113.94 577.04,124.88 575.41,134.75 573.09,143.78 568.83,151.56 564.26,158.63 558.23,166.06 550.43,174.94 542.69,183.43 533.44,190.74 518.50,201.00" type="parking"/>
   <poly color="237,199,199" fill="1" id="245894565" layer="-1.00" shape="617.12,372.91 634.58,367.55 637.60,366.62 664.33,358.41 667.39,354.80 668.29,351.10 667.84,346.84 657.21,320.60 653.62,319.98 606.14,337.31 617.12,372.91" type="amenity"/>
   <poly color="red" fill="1" id="245894566" layer="-1.00" shape="748.09,281.73 741.41,284.01 744.07,291.72 750.73,289.44 748.09,281.73" type="building"/>
   <poly color="red" fill="1" id="245894567" layer="-1.00" shape="750.73,289.44 757.41,287.15 754.76,279.45 748.09,281.73 750.73,289.44" type="building"/>
   <poly color="red" fill="1" id="245920023" layer="-1.00" shape="850.04,260.50 850.77,257.38 856.31,258.65 855.66,261.66 850.04,260.50" type="building"/>
   <poly color="red" fill="1" id="245920024" layer="-1.00" shape="767.76,294.86 776.24,294.15 775.86,289.54 781.07,289.11 779.87,275.11 769.25,275.99 769.40,277.94 769.89,283.82 766.86,284.07 767.76,294.86" type="building"/>
   <poly color="red" fill="1" id="245920025" layer="-1.00" shape="807.64,291.48 807.93,290.15 805.48,289.60 807.14,282.17 809.57,282.68 809.80,281.73 815.90,283.06 815.49,284.98 813.99,291.82 813.76,292.83 807.64,291.48" type="building"/>
   <poly color="237,199,199" fill="1" id="246050800" layer="-1.00" shape="793.48,57.16 785.81,58.25 782.50,35.04 790.14,33.95 795.24,33.23 798.55,56.44 793.48,57.16" type="amenity"/>
   <poly color="red" fill="1" id="246050800#1" layer="-1.00" shape="793.48,57.16 785.81,58.25 782.50,35.04 790.14,33.95 795.24,33.23 798.55,56.44 793.48,57.16" type="building"/>
   <poly color="red" fill="1" id="246050802" layer="-1.00" shape="859.19,47.83 860.30,42.45 868.91,44.23 867.80,49.61 859.19,47.83" type="building"/>
   <poly color="red" fill="1" id="246050803" layer="-1.00" shape="906.04,21.68 909.59,22.44 910.44,18.44 906.89,17.70 906.04,21.68" type="building"/>
   <poly color="red" fill="1" id="246050804" layer="-1.00" shape="862.49,141.68 863.17,138.69 868.11,139.77 867.44,142.80 862.49,141.68" type="building"/>
   <poly color="red" fill="1" id="246050805" layer="-1.00" shape="865.39,123.67 866.05,120.64 871.88,121.83 871.25,124.90 865.39,123.67" type="building"/>
   <poly color="red" fill="1" id="246050806" layer="-1.00" shape="871.23,96.80 871.88,93.75 877.60,94.96 876.94,98.00 871.23,96.80" type="building"/>
   <poly color="red" fill="1" id="246050808" layer="-1.00" shape="839.64,78.00 842.04,98.12 839.04,98.47 839.21,99.81 830.44,100.86 828.57,85.24 830.34,85.03 829.65,79.26 839.64,78.00" type="building"/>