<?xml version="1.0" encoding="utf-8"?><!-- generated on 10/11/17 17:50:05 by SUMO netconvert Version 0.25.0
<?xml version="1.0" encoding="UTF-8"?>

<configuration xmlns:xsi="http://www.w3.org/2001/XMLSchema-instance" xsi:noNamespaceSchemaLocation="http://sumo.dlr.de/xsd/netconvertConfiguration.xsd">

    <input>
        <type-files value="osmNetconvert.typ.xml"/>
        <osm-files value="BN_Tannenb_urban_800.osm"/>
    </input>

    <output>
        <output-file value="BN_Tannenb_urban_800.net.xml"/>
    </output>

    <projection>
        <proj.utm value="true"/>
    </projection>

    <edge_removal>
        <remove-edges.by-type value="highway.track,highway.unsurfaced,highway.raceway,highway.bridleway,highway.path,highway.footway,highway.pedestrian,highway.cycleway,highway.step,highway.steps,highway.stairs,highway.bus_guideway,highway.ford,railway.rail,railway.tram,railway.light_rail,railway.subway,railway.preserved,railway.narrow_gauge,railway.monorail,railway.funicular"/>
    </edge_removal>

</configuration>
-->
<net version="0.25">
   <location convBoundary="0.00,0.00,936.25,917.34" netOffset="-362663.76,-5622922.57" origBoundary="7.053305,50.741802,7.066569,50.750099" projParameter="+proj=utm +zone=32 +ellps=WGS84 +datum=WGS84 +units=m +no_defs"/>
   <type allow="pedestrian" id="highway.bridleway" numLanes="1" oneway="1" priority="1" speed="2.78" width="2.00"/>
   <type allow="bus" id="highway.bus_guideway" numLanes="1" oneway="1" priority="1" speed="8.33"/>
   <type allow="bicycle" id="highway.cycleway" numLanes="1" oneway="0" priority="1" speed="5.56" width="1.00"/>
   <type allow="pedestrian" id="highway.footway" numLanes="1" oneway="1" priority="1" speed="8.33" width="2.00"/>
   <type allow="army" id="highway.ford" numLanes="1" oneway="0" priority="1" speed="2.78"/>
   <type disallow="tram rail_urban rail rail_electric ship" id="highway.living_street" numLanes="1" oneway="0" priority="3" speed="2.78"/>
   <type allow="private emergency authority army vip passenger hov taxi bus coach delivery truck trailer motorcycle evehicle custom1 custom2" id="highway.motorway" numLanes="2" oneway="1" priority="13" speed="44.44"/>
   <type allow="private emergency authority army vip passenger hov taxi bus coach delivery truck trailer motorcycle evehicle custom1 custom2" id="highway.motorway_link" numLanes="1" oneway="1" priority="12" speed="22.22"/>
   <type allow="bicycle pedestrian" id="highway.path" numLanes="1" oneway="1" priority="1" speed="2.78" width="2.00"/>
   <type allow="pedestrian" id="highway.pedestrian" numLanes="1" oneway="1" priority="1" speed="8.33" width="2.00"/>
   <type disallow="tram rail_urban rail rail_electric ship" id="highway.primary" numLanes="2" oneway="0" priority="9" speed="27.78"/>
   <type disallow="tram rail_urban rail rail_electric ship" id="highway.primary_link" numLanes="1" oneway="0" priority="8" speed="22.22"/>
   <type allow="vip" id="highway.raceway" numLanes="2" oneway="0" priority="14" speed="83.33"/>
   <type disallow="tram rail_urban rail rail_electric ship" id="highway.residential" numLanes="1" oneway="0" priority="4" speed="13.89"/>
   <type disallow="tram rail_urban rail rail_electric ship" id="highway.secondary" numLanes="2" oneway="0" priority="7" speed="27.78"/>
   <type disallow="tram rail_urban rail rail_electric ship" id="highway.secondary_link" numLanes="1" oneway="0" priority="6" speed="22.22"/>
   <type allow="delivery bicycle pedestrian" id="highway.service" numLanes="1" oneway="0" priority="2" speed="5.56"/>
   <type disallow="tram rail_urban rail rail_electric ship" id="highway.services" numLanes="1" oneway="0" priority="1" speed="8.33"/>
   <type allow="pedestrian" id="highway.stairs" numLanes="1" oneway="1" priority="1" speed="1.39" width="2.00"/>
   <type allow="pedestrian" id="highway.step" numLanes="1" oneway="1" priority="1" speed="1.39" width="2.00"/>
   <type allow="pedestrian" id="highway.steps" numLanes="1" oneway="1" priority="1" speed="1.39" width="2.00"/>
   <type disallow="tram rail_urban rail rail_electric ship" id="highway.tertiary" numLanes="1" oneway="0" priority="6" speed="22.22"/>
   <type disallow="tram rail_urban rail rail_electric ship" id="highway.tertiary_link" numLanes="1" oneway="0" priority="5" speed="22.22"/>
   <type disallow="tram rail_urban rail rail_electric ship" id="highway.track" numLanes="1" oneway="0" priority="1" speed="5.56"/>
   <type disallow="tram rail_urban rail rail_electric bicycle pedestrian ship" id="highway.trunk" numLanes="2" oneway="0" priority="11" speed="27.78"/>
   <type disallow="tram rail_urban rail rail_electric bicycle pedestrian ship" id="highway.trunk_link" numLanes="1" oneway="0" priority="10" speed="22.22"/>
   <type disallow="tram rail_urban rail rail_electric ship" id="highway.unclassified" numLanes="1" oneway="0" priority="5" speed="13.89"/>
   <type disallow="tram rail_urban rail rail_electric ship" id="highway.unsurfaced" numLanes="1" oneway="0" priority="1" speed="8.33"/>
   <type allow="rail_urban" id="railway.light_rail" numLanes="1" oneway="1" priority="15" speed="27.78"/>
   <type allow="rail" id="railway.preserved" numLanes="1" oneway="1" priority="15" speed="27.78"/>
   <type allow="rail rail_electric" id="railway.rail" numLanes="1" oneway="1" priority="15" speed="83.33"/>
   <type allow="rail_urban" id="railway.subway" numLanes="1" oneway="1" priority="15" speed="27.78"/>
   <type allow="tram" id="railway.tram" numLanes="1" oneway="1" priority="15" speed="13.89"/>
   <edge function="internal" id=":1075491970_0">
      <lane disallow="tram rail_urban rail rail_electric ship" id=":1075491970_0_0" index="0" length="4.82" shape="934.12,541.82 934.90,543.09 934.94,544.01 934.22,544.59 932.75,544.82" speed="13.89"/>
   </edge>
   <edge function="internal" id=":1091426557_0">
      <lane disallow="tram rail_urban rail rail_electric ship" id=":1091426557_0_0" index="0" length="6.88" shape="71.14,193.35 65.14,189.99" speed="13.89"/>
   </edge>
   <edge function="internal" id=":1091426557_1">
      <lane allow="delivery bicycle pedestrian" id=":1091426557_1_0" index="0" length="3.25" shape="71.14,193.35 69.78,191.52 69.48,190.60" speed="9.73"/>
   </edge>
   <edge function="internal" id=":1091426557_2">
      <lane disallow="tram rail_urban rail rail_electric ship" id=":1091426557_2_0" index="0" length="1.94" shape="71.14,193.35 70.86,191.89 71.00,191.46" speed="13.89"/>
   </edge>
   <edge function="internal" id=":1091426557_9">
      <lane id=":1091426557_9_0" index="0" length="5.81" shape="69.48,190.60 69.12,189.51 69.19,187.33 69.96,184.97" speed="9.73"/>
   </edge>
   <edge function="internal" id=":1091426557_10">
      <lane id=":1091426557_10_0" index="0" length="2.88" shape="71.00,191.46 71.16,191.01 72.03,190.73 73.49,191.03" speed="13.89"/>
   </edge>
   <edge function="internal" id=":1091426557_3">
      <lane disallow="tram rail_urban rail rail_electric ship" id=":1091426557_3_0" index="0" length="5.03" shape="72.96,186.36 72.50,187.70 72.44,188.93 72.77,190.04 73.49,191.03" speed="9.73"/>
   </edge>
   <edge function="internal" id=":1091426557_4">
      <lane disallow="tram rail_urban rail rail_electric ship" id=":1091426557_4_0" index="0" length="9.50" shape="72.96,186.36 71.58,188.50 69.82,189.82 67.67,190.32 65.14,189.99" speed="9.73"/>
   </edge>
   <edge function="internal" id=":1091426557_5">
      <lane allow="delivery bicycle pedestrian" id=":1091426557_5_0" index="0" length="4.82" shape="72.96,186.36 71.69,187.13 70.77,187.16 70.19,186.44 69.96,184.97" speed="5.56"/>
   </edge>
   <edge function="internal" id=":1091426557_6">
      <lane allow="delivery bicycle pedestrian" id=":1091426557_6_0" index="0" length="4.81" shape="66.01,186.80 67.29,186.97 68.37,186.72 69.27,186.05 69.96,184.97" speed="9.73"/>
   </edge>
   <edge function="internal" id=":1091426557_7">
      <lane disallow="tram rail_urban rail rail_electric ship" id=":1091426557_7_0" index="0" length="8.59" shape="66.01,186.80 73.49,191.03" speed="13.89"/>
   </edge>
   <edge function="internal" id=":1091426557_8">
      <lane disallow="tram rail_urban rail rail_electric ship" id=":1091426557_8_0" index="0" length="2.82" shape="66.01,186.80 66.99,187.92 67.17,188.83 66.90,189.13" speed="13.89"/>
   </edge>
   <edge function="internal" id=":1091426557_11">
      <lane id=":1091426557_11_0" index="0" length="2.00" shape="66.90,189.13 66.55,189.52 65.14,189.99" speed="13.89"/>
   </edge>
   <edge function="internal" id=":1091426619_0">
      <lane disallow="tram rail_urban rail rail_electric ship" id=":1091426619_0_0" index="0" length="3.12" shape="83.12,205.57 84.63,202.84" speed="6.95"/>
   </edge>
   <edge function="internal" id=":1091426619_1">
      <lane disallow="tram rail_urban rail rail_electric ship" id=":1091426619_1_0" index="0" length="8.73" shape="83.12,205.57 82.81,203.29 83.17,201.26 84.21,199.48 85.93,197.95" speed="6.95"/>
   </edge>
   <edge function="internal" id=":1091426619_2">
      <lane allow="delivery bicycle pedestrian" id=":1091426619_2_0" index="0" length="4.82" shape="83.12,205.57 83.59,204.16 84.28,203.55 85.19,203.73 86.31,204.71" speed="5.56"/>
   </edge>
   <edge function="internal" id=":1091426619_3">
      <lane allow="delivery bicycle pedestrian" id=":1091426619_3_0" index="0" length="4.62" shape="87.79,200.68 86.88,201.49 86.33,202.43 86.14,203.50 86.31,204.71" speed="6.95"/>
   </edge>
   <edge function="internal" id=":1091426619_4">
      <lane disallow="tram rail_urban rail rail_electric ship" id=":1091426619_4_0" index="0" length="3.83" shape="87.79,200.68 84.63,202.84" speed="8.33"/>
   </edge>
   <edge function="internal" id=":1091426619_5">
      <lane disallow="tram rail_urban rail rail_electric ship" id=":1091426619_5_0" index="0" length="2.41" shape="87.79,200.68 86.31,200.69 85.50,200.24" speed="8.33"/>
   </edge>
   <edge function="internal" id=":1091426619_9">
      <lane id=":1091426619_9_0" index="0" length="2.41" shape="85.50,200.24 85.38,199.33 85.93,197.95" speed="8.33"/>
   </edge>
   <edge function="internal" id=":1091426619_6">
      <lane disallow="tram rail_urban rail rail_electric ship" id=":1091426619_6_0" index="0" length="5.75" shape="81.17,201.17 85.93,197.95" speed="8.33"/>
   </edge>
   <edge function="internal" id=":1091426619_7">
      <lane allow="delivery bicycle pedestrian" id=":1091426619_7_0" index="0" length="3.48" shape="81.17,201.17 82.82,200.51 84.22,200.88 84.38,201.07" speed="6.95"/>
   </edge>
   <edge function="internal" id=":1091426619_8">
      <lane disallow="tram rail_urban rail rail_electric ship" id=":1091426619_8_0" index="0" length="3.88" shape="81.17,201.17 82.66,200.29 83.73,200.27 84.39,201.12" speed="8.33"/>
   </edge>
   <edge function="internal" id=":1091426619_10">
      <lane id=":1091426619_10_0" index="0" length="4.17" shape="84.38,201.07 85.39,202.28 86.31,204.71" speed="6.95"/>
   </edge>
   <edge function="internal" id=":1091426619_11">
      <lane id=":1091426619_11_0" index="0" length="1.73" shape="84.39,201.12 84.63,202.84" speed="8.33"/>
   </edge>
   <edge function="internal" id=":1232657884_0">
      <lane disallow="tram rail_urban rail rail_electric ship" id=":1232657884_0_0" index="0" length="0.10" shape="767.88,1.73 767.92,1.72" speed="8.33"/>
   </edge>
   <edge function="internal" id=":1232657884_1">
      <lane disallow="tram rail_urban rail rail_electric ship" id=":1232657884_1_0" index="0" length="2.41" shape="767.88,1.73 766.63,0.91 766.22,0.08" speed="8.33"/>
   </edge>
   <edge function="internal" id=":1232657884_4">
      <lane id=":1232657884_4_0" index="0" length="2.41" shape="766.22,0.08 766.62,-0.74 767.86,-1.57" speed="8.33"/>
   </edge>
   <edge function="internal" id=":1232657884_2">
      <lane disallow="tram rail_urban rail rail_electric ship" id=":1232657884_2_0" index="0" length="0.10" shape="767.84,-1.57 767.86,-1.57" speed="8.33"/>
   </edge>
   <edge function="internal" id=":1232657884_3">
      <lane disallow="tram rail_urban rail rail_electric ship" id=":1232657884_3_0" index="0" length="2.41" shape="767.84,-1.57 769.10,-0.78 769.53,0.03" speed="8.33"/>
   </edge>
   <edge function="internal" id=":1232657884_5">
      <lane id=":1232657884_5_0" index="0" length="2.41" shape="769.53,0.03 769.14,0.87 767.92,1.72" speed="8.33"/>
   </edge>
   <edge function="internal" id=":146896195_0">
      <lane disallow="tram rail_urban rail rail_electric ship" id=":146896195_0_0" index="0" length="8.40" shape="84.46,202.95 77.56,207.73" speed="8.33"/>
   </edge>
   <edge function="internal" id=":146896195_1">
      <lane disallow="tram rail_urban rail rail_electric ship" id=":146896195_1_0" index="0" length="4.60" shape="84.46,202.95 82.19,203.96 80.08,203.89" speed="11.11"/>
   </edge>
   <edge function="internal" id=":146896195_2">
      <lane disallow="tram rail_urban rail rail_electric ship" id=":146896195_2_0" index="0" length="3.88" shape="84.46,202.95 82.97,203.83 81.90,203.85 81.24,203.00" speed="8.33"/>
   </edge>
   <edge function="internal" id=":146896195_9">
      <lane id=":146896195_9_0" index="0" length="5.16" shape="80.08,203.89 78.12,202.73 76.32,200.48" speed="11.11"/>
   </edge>
   <edge function="internal" id=":146896195_10">
      <lane id=":146896195_10_0" index="0" length="1.73" shape="81.24,203.00 81.00,201.28" speed="8.33"/>
   </edge>
   <edge function="internal" id=":146896195_3">
      <lane disallow="tram rail_urban rail rail_electric ship" id=":146896195_3_0" index="0" length="3.18" shape="79.13,198.75 79.87,199.91 80.42,200.72 80.80,201.18 81.00,201.28" speed="11.11"/>
   </edge>
   <edge function="internal" id=":146896195_4">
      <lane disallow="tram rail_urban rail rail_electric ship" id=":146896195_4_0" index="0" length="10.24" shape="79.13,198.75 80.29,201.35 80.42,203.71 79.51,205.84 77.56,207.73" speed="11.11"/>
   </edge>
   <edge function="internal" id=":146896195_5">
      <lane disallow="tram rail_urban rail rail_electric ship" id=":146896195_5_0" index="0" length="4.82" shape="79.13,198.75 79.08,200.23 78.59,201.02 77.67,201.10 76.32,200.48" speed="13.89"/>
   </edge>
   <edge function="internal" id=":146896195_6">
      <lane disallow="tram rail_urban rail rail_electric ship" id=":146896195_6_0" index="0" length="5.19" shape="75.63,205.05 76.59,204.11 77.02,203.03 76.93,201.82 76.32,200.48" speed="11.11"/>
   </edge>
   <edge function="internal" id=":146896195_7">
      <lane disallow="tram rail_urban rail rail_electric ship" id=":146896195_7_0" index="0" length="6.56" shape="75.63,205.05 81.00,201.28" speed="8.33"/>
   </edge>
   <edge function="internal" id=":146896195_8">
      <lane disallow="tram rail_urban rail rail_electric ship" id=":146896195_8_0" index="0" length="2.41" shape="75.63,205.05 77.12,205.00 77.94,205.43" speed="8.33"/>
   </edge>
   <edge function="internal" id=":146896195_11">
      <lane id=":146896195_11_0" index="0" length="2.41" shape="77.94,205.43 78.08,206.34 77.56,207.73" speed="8.33"/>
   </edge>
   <edge function="internal" id=":146896223_0">
      <lane allow="delivery bicycle pedestrian" id=":146896223_0_0" index="0" length="5.83" shape="841.31,3.59 840.01,3.78 838.96,4.48 838.16,5.69 837.60,7.41" speed="9.72"/>
   </edge>
   <edge function="internal" id=":146896223_1">
      <lane disallow="tram rail_urban rail rail_electric ship" id=":146896223_1_0" index="0" length="9.63" shape="841.31,3.59 831.69,3.24" speed="13.89"/>
   </edge>
   <edge function="internal" id=":146896223_2">
      <lane disallow="tram rail_urban rail rail_electric ship" id=":146896223_2_0" index="0" length="2.41" shape="841.31,3.59 840.11,2.71 839.73,1.87" speed="13.89"/>
   </edge>
   <edge function="internal" id=":146896223_9">
      <lane id=":146896223_9_0" index="0" length="2.41" shape="839.73,1.87 840.18,1.06 841.45,0.29" speed="13.89"/>
   </edge>
   <edge function="internal" id=":146896223_3">
      <lane disallow="tram rail_urban rail rail_electric ship" id=":146896223_3_0" index="0" length="9.67" shape="831.79,-0.06 841.45,0.29" speed="13.89"/>
   </edge>
   <edge function="internal" id=":146896223_4">
      <lane allow="delivery bicycle pedestrian" id=":146896223_4_0" index="0" length="5.49" shape="831.79,-0.06 834.93,0.49 836.81,1.82" speed="9.72"/>
   </edge>
   <edge function="internal" id=":146896223_5">
      <lane disallow="tram rail_urban rail rail_electric ship" id=":146896223_5_0" index="0" length="2.41" shape="831.79,-0.06 833.00,0.80 833.39,1.64" speed="13.89"/>
   </edge>
   <edge function="internal" id=":146896223_10">
      <lane id=":146896223_10_0" index="0" length="5.83" shape="836.81,1.82 836.95,1.92 837.84,4.23 837.60,7.41" speed="9.72"/>
   </edge>
   <edge function="internal" id=":146896223_11">
      <lane id=":146896223_11_0" index="0" length="2.41" shape="833.39,1.64 832.95,2.45 831.69,3.24" speed="13.89"/>
   </edge>
   <edge function="internal" id=":146896223_6">
      <lane disallow="tram rail_urban rail rail_electric ship" id=":146896223_6_0" index="0" length="5.24" shape="834.38,6.69 834.49,5.22 834.08,4.16 833.14,3.49 831.69,3.24" speed="9.72"/>
   </edge>
   <edge function="internal" id=":146896223_7">
      <lane disallow="tram rail_urban rail rail_electric ship" id=":146896223_7_0" index="0" length="10.49" shape="834.38,6.69 835.37,3.80 836.88,1.77 838.91,0.60 841.45,0.29" speed="9.72"/>
   </edge>
   <edge function="internal" id=":146896223_8">
      <lane allow="delivery bicycle pedestrian" id=":146896223_8_0" index="0" length="4.82" shape="834.38,6.69 835.45,5.66 836.34,5.44 837.06,6.02 837.60,7.41" speed="5.56"/>
   </edge>
   <edge function="internal" id=":1523864093_0">
      <lane allow="delivery bicycle pedestrian" id=":1523864093_0_0" index="0" length="0.10" shape="212.49,116.63 212.51,116.67" speed="5.56"/>
   </edge>
   <edge function="internal" id=":1523864093_1">
      <lane allow="delivery bicycle pedestrian" id=":1523864093_1_0" index="0" length="2.41" shape="212.49,116.63 212.86,115.19 213.50,114.52" speed="5.56"/>
   </edge>
   <edge function="internal" id=":1523864093_4">
      <lane id=":1523864093_4_0" index="0" length="2.41" shape="213.50,114.52 214.41,114.64 215.60,115.53" speed="5.56"/>
   </edge>
   <edge function="internal" id=":1523864093_2">
      <lane allow="delivery bicycle pedestrian" id=":1523864093_2_0" index="0" length="0.10" shape="215.60,115.51 215.60,115.53" speed="5.56"/>
   </edge>
   <edge function="internal" id=":1523864093_3">
      <lane allow="delivery bicycle pedestrian" id=":1523864093_3_0" index="0" length="2.41" shape="215.60,115.51 215.26,116.96 214.63,117.64" speed="5.56"/>
   </edge>
   <edge function="internal" id=":1523864093_5">
      <lane id=":1523864093_5_0" index="0" length="2.41" shape="214.63,117.64 213.71,117.54 212.51,116.67" speed="5.56"/>
   </edge>
   <edge function="internal" id=":1526975717_0">
      <lane disallow="tram rail_urban rail rail_electric ship" id=":1526975717_0_0" index="0" length="5.43" shape="171.06,152.03 169.97,150.85 168.83,150.23 167.64,150.16 166.39,150.63" speed="8.33"/>
   </edge>
   <edge function="internal" id=":1526975717_1">
      <lane disallow="tram rail_urban rail rail_electric ship" id=":1526975717_1_0" index="0" length="10.83" shape="171.06,152.03 169.64,149.37 169.48,146.97 170.57,144.83 172.92,142.94" speed="8.33"/>
   </edge>
   <edge function="internal" id=":1526975717_2">
      <lane disallow="tram rail_urban rail rail_electric ship" id=":1526975717_2_0" index="0" length="4.82" shape="171.06,152.03 170.99,150.54 171.41,149.72 172.32,149.57 173.72,150.08" speed="8.33"/>
   </edge>
   <edge function="internal" id=":1526975717_3">
      <lane disallow="tram rail_urban rail rail_electric ship" id=":1526975717_3_0" index="0" length="5.12" shape="174.60,145.78 173.49,146.67 172.97,147.68 173.05,148.82 173.72,150.08" speed="8.33"/>
   </edge>
   <edge function="internal" id=":1526975717_4">
      <lane disallow="tram rail_urban rail rail_electric ship" id=":1526975717_4_0" index="0" length="9.53" shape="174.60,145.78 166.39,150.63" speed="8.33"/>
   </edge>
   <edge function="internal" id=":1526975717_5">
      <lane disallow="tram rail_urban rail rail_electric ship" id=":1526975717_5_0" index="0" length="2.41" shape="174.60,145.78 173.11,145.70 172.34,145.20" speed="8.33"/>
   </edge>
   <edge function="internal" id=":1526975717_9">
      <lane id=":1526975717_9_0" index="0" length="2.41" shape="172.34,145.20 172.27,144.28 172.92,142.94" speed="8.33"/>
   </edge>
   <edge function="internal" id=":1526975717_6">
      <lane disallow="tram rail_urban rail rail_electric ship" id=":1526975717_6_0" index="0" length="9.53" shape="164.71,147.79 172.92,142.94" speed="8.33"/>
   </edge>
   <edge function="internal" id=":1526975717_7">
      <lane disallow="tram rail_urban rail rail_electric ship" id=":1526975717_7_0" index="0" length="5.00" shape="164.71,147.79 167.19,146.80 169.52,146.85" speed="8.33"/>
   </edge>
   <edge function="internal" id=":1526975717_8">
      <lane disallow="tram rail_urban rail rail_electric ship" id=":1526975717_8_0" index="0" length="2.41" shape="164.71,147.79 166.20,147.87 166.97,148.37" speed="8.33"/>
   </edge>
   <edge function="internal" id=":1526975717_10">
      <lane id=":1526975717_10_0" index="0" length="5.37" shape="169.52,146.85 171.70,147.94 173.72,150.08" speed="8.33"/>
   </edge>
   <edge function="internal" id=":1526975717_11">
      <lane id=":1526975717_11_0" index="0" length="2.41" shape="166.97,148.37 167.04,149.29 166.39,150.63" speed="8.33"/>
   </edge>
   <edge function="internal" id=":1529788391_0">
      <lane allow="delivery bicycle pedestrian" id=":1529788391_0_0" index="0" length="4.82" shape="102.13,307.92 103.51,308.45 104.10,309.17 103.87,310.07 102.84,311.14" speed="5.56"/>
   </edge>
   <edge function="internal" id=":1735910649_0">
      <lane disallow="tram rail_urban rail rail_electric ship" id=":1735910649_0_0" index="0" length="0.10" shape="49.47,605.93 49.47,605.94" speed="13.89"/>
   </edge>
   <edge function="internal" id=":1735910649_1">
      <lane disallow="tram rail_urban rail rail_electric ship" id=":1735910649_1_0" index="0" length="2.41" shape="49.47,605.93 49.91,604.51 50.59,603.88" speed="13.89"/>
   </edge>
   <edge function="internal" id=":1735910649_4">
      <lane id=":1735910649_4_0" index="0" length="2.41" shape="50.59,603.88 51.49,604.04 52.63,605.00" speed="13.89"/>
   </edge>
   <edge function="internal" id=":1735910649_2">
      <lane disallow="tram rail_urban rail rail_electric ship" id=":1735910649_2_0" index="0" length="0.10" shape="52.63,605.00 52.63,605.00" speed="13.89"/>
   </edge>
   <edge function="internal" id=":1735910649_3">
      <lane disallow="tram rail_urban rail rail_electric ship" id=":1735910649_3_0" index="0" length="2.41" shape="52.63,605.00 52.19,606.42 51.52,607.05" speed="13.89"/>
   </edge>
   <edge function="internal" id=":1735910649_5">
      <lane id=":1735910649_5_0" index="0" length="2.41" shape="51.52,607.05 50.61,606.89 49.47,605.94" speed="13.89"/>
   </edge>
   <edge function="internal" id=":1735910722_0">
      <lane allow="delivery bicycle pedestrian" id=":1735910722_0_0" index="0" length="5.01" shape="117.37,673.63 116.00,673.52 114.92,673.88 114.15,674.71 113.68,676.00" speed="9.73"/>
   </edge>
   <edge function="internal" id=":1735910722_1">
      <lane disallow="tram rail_urban rail rail_electric ship" id=":1735910722_1_0" index="0" length="9.53" shape="117.37,673.63 108.04,671.65" speed="13.89"/>
   </edge>
   <edge function="internal" id=":1735910722_2">
      <lane disallow="tram rail_urban rail rail_electric ship" id=":1735910722_2_0" index="0" length="2.41" shape="117.37,673.63 116.34,672.55 116.12,671.66" speed="13.89"/>
   </edge>
   <edge function="internal" id=":1735910722_9">
      <lane id=":1735910722_9_0" index="0" length="2.41" shape="116.12,671.66 116.70,670.94 118.08,670.41" speed="13.89"/>
   </edge>
   <edge function="internal" id=":1735910722_3">
      <lane disallow="tram rail_urban rail rail_electric ship" id=":1735910722_3_0" index="0" length="9.60" shape="108.70,668.42 118.08,670.41" speed="13.89"/>
   </edge>
   <edge function="internal" id=":1735910722_4">
      <lane allow="delivery bicycle pedestrian" id=":1735910722_4_0" index="0" length="5.34" shape="108.70,668.42 111.37,669.37 113.10,670.95 113.15,671.10" speed="9.73"/>
   </edge>
   <edge function="internal" id=":1735910722_5">
      <lane disallow="tram rail_urban rail rail_electric ship" id=":1735910722_5_0" index="0" length="2.41" shape="108.70,668.42 109.75,669.47 109.99,670.36" speed="13.89"/>
   </edge>
   <edge function="internal" id=":1735910722_10">
      <lane id=":1735910722_10_0" index="0" length="5.03" shape="113.15,671.10 113.87,673.16 113.68,676.00" speed="9.73"/>
   </edge>
   <edge function="internal" id=":1735910722_11">
      <lane id=":1735910722_11_0" index="0" length="2.41" shape="109.99,670.36 109.42,671.09 108.04,671.65" speed="13.89"/>
   </edge>
   <edge function="internal" id=":1735910722_6">
      <lane disallow="tram rail_urban rail rail_electric ship" id=":1735910722_6_0" index="0" length="5.02" shape="110.45,675.33 110.54,673.95 110.17,672.88 109.34,672.11 108.04,671.65" speed="9.73"/>
   </edge>
   <edge function="internal" id=":1735910722_7">
      <lane disallow="tram rail_urban rail rail_electric ship" id=":1735910722_7_0" index="0" length="10.38" shape="110.45,675.33 111.43,672.65 113.02,670.94 115.24,670.19 118.08,670.41" speed="9.73"/>
   </edge>
   <edge function="internal" id=":1735910722_8">
      <lane allow="delivery bicycle pedestrian" id=":1735910722_8_0" index="0" length="4.82" shape="110.45,675.33 111.51,674.29 112.41,674.05 113.13,674.62 113.68,676.00" speed="5.56"/>
   </edge>
   <edge function="internal" id=":1735910772_0">
      <lane disallow="tram rail_urban rail rail_electric ship" id=":1735910772_0_0" index="0" length="0.10" shape="37.50,566.14 37.50,566.13" speed="13.89"/>
   </edge>
   <edge function="internal" id=":1735910772_1">
      <lane disallow="tram rail_urban rail rail_electric ship" id=":1735910772_1_0" index="0" length="2.41" shape="37.50,566.14 37.94,564.72 38.61,564.08" speed="13.89"/>
   </edge>
   <edge function="internal" id=":1735910772_4">
      <lane id=":1735910772_4_0" index="0" length="2.41" shape="38.61,564.08 39.52,564.24 40.66,565.19" speed="13.89"/>
   </edge>
   <edge function="internal" id=":1735910772_2">
      <lane disallow="tram rail_urban rail rail_electric ship" id=":1735910772_2_0" index="0" length="0.10" shape="40.66,565.20 40.66,565.19" speed="13.89"/>
   </edge>
   <edge function="internal" id=":1735910772_3">
      <lane disallow="tram rail_urban rail rail_electric ship" id=":1735910772_3_0" index="0" length="2.41" shape="40.66,565.20 40.22,566.62 39.55,567.25" speed="13.89"/>
   </edge>
   <edge function="internal" id=":1735910772_5">
      <lane id=":1735910772_5_0" index="0" length="2.41" shape="39.55,567.25 38.64,567.09 37.50,566.13" speed="13.89"/>
   </edge>
   <edge function="internal" id=":1735910778_0">
      <lane allow="delivery bicycle pedestrian" id=":1735910778_0_0" index="0" length="0.10" shape="48.00,529.80 47.91,529.83" speed="5.56"/>
   </edge>
   <edge function="internal" id=":1735910778_1">
      <lane allow="delivery bicycle pedestrian" id=":1735910778_1_0" index="0" length="2.41" shape="48.00,529.80 46.60,529.31 45.99,528.62" speed="5.56"/>
   </edge>
   <edge function="internal" id=":1735910778_4">
      <lane id=":1735910778_4_0" index="0" length="2.41" shape="45.99,528.62 46.18,527.72 47.17,526.61" speed="5.56"/>
   </edge>
   <edge function="internal" id=":1735910778_2">
      <lane allow="delivery bicycle pedestrian" id=":1735910778_2_0" index="0" length="0.31" shape="46.87,526.69 47.17,526.61" speed="5.56"/>
   </edge>
   <edge function="internal" id=":1735910778_3">
      <lane allow="delivery bicycle pedestrian" id=":1735910778_3_0" index="0" length="2.41" shape="46.87,526.69 48.30,527.09 48.96,527.74" speed="5.56"/>
   </edge>
   <edge function="internal" id=":1735910778_5">
      <lane id=":1735910778_5_0" index="0" length="2.41" shape="48.96,527.74 48.82,528.65 47.91,529.83" speed="5.56"/>
   </edge>
   <edge function="internal" id=":1735916051_0">
      <lane allow="delivery bicycle pedestrian" id=":1735916051_0_0" index="0" length="5.03" shape="315.87,648.99 314.52,649.09 313.51,649.61 312.84,650.54 312.50,651.89" speed="6.95"/>
   </edge>
   <edge function="internal" id=":1735916051_1">
      <lane disallow="tram rail_urban rail rail_electric ship" id=":1735916051_1_0" index="0" length="9.42" shape="315.87,648.99 306.49,648.09" speed="8.33"/>
   </edge>
   <edge function="internal" id=":1735916051_2">
      <lane disallow="tram rail_urban rail rail_electric ship" id=":1735916051_2_0" index="0" length="2.41" shape="315.87,648.99 314.69,648.08 314.34,647.23" speed="8.33"/>
   </edge>
   <edge function="internal" id=":1735916051_9">
      <lane id=":1735916051_9_0" index="0" length="2.41" shape="314.34,647.23 314.81,646.44 316.10,645.70" speed="8.33"/>
   </edge>
   <edge function="internal" id=":1735916051_3">
      <lane disallow="tram rail_urban rail rail_electric ship" id=":1735916051_3_0" index="0" length="9.26" shape="306.89,644.82 316.10,645.70" speed="8.33"/>
   </edge>
   <edge function="internal" id=":1735916051_4">
      <lane allow="delivery bicycle pedestrian" id=":1735916051_4_0" index="0" length="5.13" shape="306.89,644.82 309.60,645.54 311.44,646.96" speed="6.95"/>
   </edge>
   <edge function="internal" id=":1735916051_5">
      <lane disallow="tram rail_urban rail rail_electric ship" id=":1735916051_5_0" index="0" length="2.41" shape="306.89,644.82 308.02,645.78 308.33,646.65" speed="8.33"/>
   </edge>
   <edge function="internal" id=":1735916051_10">
      <lane id=":1735916051_10_0" index="0" length="5.13" shape="311.44,646.96 312.41,649.08 312.50,651.89" speed="6.95"/>
   </edge>
   <edge function="internal" id=":1735916051_11">