<?xml version="1.0" encoding="utf-8"?><!-- generated on 10/11/17 17:50:57 by SUMO polyconvert Version 0.25.0
<?xml version="1.0" encoding="UTF-8"?>

<configuration xmlns:xsi="http://www.w3.org/2001/XMLSchema-instance" xsi:noNamespaceSchemaLocation="http://sumo.dlr.de/xsd/polyconvertConfiguration.xsd">

    <input>
        <net-file value="DD_Altstadt_historical_800.net.xml"/>
        <osm-files value="DD_Altstadt_historical_800.osm"/>
        <type-file value="osmPolyconvert.typ.xml"/>
    </input>

    <output>
        <output-file value="DD_Altstadt_historical_800.poly.xml"/>
    </output>

    <projection>
        <proj.utm value="true"/>
    </projection>

    <processing>
        <poi-layer-offset value="5"/>
    </processing>

</configuration>
-->
<additional>
   <location convBoundary="-3.66,-2.35,845.61,754.96" netOffset="-411170.97,-5655793.26" origBoundary="13.732700,51.046900,13.744700,51.053599" projParameter="+proj=utm +zone=33 +ellps=WGS84 +datum=WGS84 +units=m +no_defs"/>
   <poly color="207,245,201" fill="1" id="103776246" layer="-2.00" shape="703.14,252.61 700.70,246.05 700.41,245.25 707.42,242.67 707.68,243.37 710.14,250.05 709.57,250.26 703.14,252.61" type="leisure"/>
   <poly color="235,235,227" fill="0" id="10567901" layer="-3.00" shape="7.36,59.47 -1.90,54.99 5.08,18.40 2.92,17.91 4.39,596.43" type="residential"/>
   <poly color="242,242,204" fill="0" id="10568664" layer="-3.00" shape="831.81,137.85 783.57,51.41 777.07,40.39 770.10,28.75 762.60,18.50 754.12,8.37 707.72,3.92 717.97,16.15 718.34,16.59 729.24,30.55 733.41,36.66 737.38,43.33 744.39,54.50 748.45,61.79 759.09,80.92 760.84,83.60 762.96,87.43" type="farm"/>
   <poly color="128,255,128" fill="0" id="106540348" layer="-1.00" shape="402.92,683.60 412.26,677.32 488.46,625.62" type="historic"/>
   <poly color="207,245,201" fill="0" id="106540348#1" layer="-2.00" shape="402.92,683.60 412.26,677.32 488.46,625.62" type="tourism"/>
   <poly color="red" fill="1" id="107101643" layer="-1.00" shape="165.67,343.99 215.99,332.68 240.83,327.11 245.31,346.84 268.34,341.49 272.37,357.11 274.89,356.65 280.07,379.05 226.22,392.31 173.90,403.71 97.87,420.97 84.97,424.14 83.63,418.39 82.68,414.36 82.23,412.45 89.73,410.65 88.91,406.30 88.11,402.12 80.67,403.72 79.31,397.41 78.37,392.59 81.38,391.80 80.17,387.37 79.96,385.23 81.60,377.51 95.43,380.60 99.57,384.16 102.85,370.60 105.95,368.19 153.76,357.24 163.22,355.25 167.91,354.51 165.67,343.99" type="building"/>
   <poly color="242,242,204" fill="1" id="110656125" layer="-3.00" shape="698.71,256.39 688.92,228.25 688.93,225.97 690.71,224.04 709.01,214.03 711.54,213.83 714.00,215.20 728.51,242.53 728.33,248.42 724.56,252.15 712.93,255.86 705.62,258.04 701.69,258.17 698.71,256.39" type="farm"/>
   <poly color="red" fill="1" id="124190407" layer="-1.00" shape="757.38,741.31" type="building"/>
   <poly color="red" fill="1" id="129645690" layer="-1.00" shape="568.56,695.99 564.60,696.90 566.99,707.24 570.95,706.33 568.56,695.99" type="building"/>
   <poly color="red" fill="1" id="134042982" layer="-1.00" shape="385.22,664.98 388.30,662.74 383.50,650.73 384.44,650.61 385.31,650.20 385.99,649.51 386.41,648.64 386.53,647.68 386.32,646.74 398.61,641.90 398.98,642.74 399.61,643.41 400.42,643.84 401.33,643.98 402.24,643.83 403.05,643.38 403.67,642.70 404.02,641.88 407.57,649.85 420.20,641.58 417.52,636.05 413.03,625.99 412.02,623.52 398.74,628.79 380.74,635.94 364.33,642.46 367.20,649.14 370.65,658.60 371.75,661.22 380.81,656.80 385.22,664.98" type="building"/>
   <poly color="red" fill="1" id="134042986" layer="-1.00" shape="237.22,96.05 237.89,103.98 238.14,107.32 248.74,106.57 251.02,131.79 252.85,152.02 253.16,155.37 253.66,160.76 258.13,209.82 263.44,252.85 264.48,261.26 265.60,271.47 272.25,331.84 277.80,355.94 274.89,356.65 280.07,379.05 281.39,384.39 298.55,380.33 306.69,378.17 303.63,365.37 300.53,351.67 300.29,350.58 293.02,352.43 287.84,330.67 281.42,262.40 281.18,259.88 274.60,208.03 280.02,207.44 279.40,198.09 288.16,197.11 286.32,179.85 284.39,161.74 275.13,162.45 268.06,90.45 237.07,92.84 237.22,96.05" type="building"/>
   <poly color="red" fill="1" id="134043009" layer="-1.00" shape="738.08,244.60 734.53,245.48 738.79,259.01 737.66,259.23 737.22,257.80 693.96,267.85 693.51,266.72 694.18,266.43 690.02,255.74 678.11,222.66 681.64,220.48 688.29,216.41 698.93,210.50 699.35,211.37 699.82,212.23 702.15,211.00 701.17,209.16 714.22,201.27 737.17,243.56 737.54,243.43 738.08,244.60" type="building"/>
   <poly color="red" fill="1" id="136298347" layer="-1.00" shape="117.53,282.34 106.34,279.80 104.80,279.42 106.87,270.72 119.94,273.81 120.80,270.18 121.57,266.80 108.76,263.93 115.96,231.95 108.17,230.20 111.49,215.46 152.81,224.73 149.49,239.46 147.46,239.00 140.31,270.72 123.94,267.05 123.15,270.59 122.36,274.09 139.01,277.80 137.02,286.68 117.53,282.34" type="building"/>
   <poly color="red" fill="1" id="13859426" layer="-1.00" shape="363.32,12.02" type="building"/>
   <poly color="237,199,255" fill="1" id="13859426#1" layer="-1.00" shape="363.32,12.02" type="shop"/>
   <poly color="194,194,130" fill="1" id="13859465" layer="-3.00" shape="153.73,270.86 166.98,350.09 167.91,354.51 163.22,355.25 102.85,370.60 99.57,384.16 95.43,380.60 81.60,377.51 79.96,385.23 80.17,387.37 81.38,391.80 78.37,392.59 79.31,397.41 80.67,403.72 88.11,402.12 88.91,406.30 89.73,410.65 82.23,412.45 82.68,414.36 83.63,418.39 84.97,424.14 97.87,420.97 173.90,403.71 226.22,392.31 280.07,379.05 274.89,356.65 267.73,316.17 261.86,270.91 252.59,271.78 253.83,282.59 235.66,284.63 233.94,270.94 228.89,215.79 214.78,215.10 216.00,200.90 224.80,202.27 236.43,142.95 166.19,127.30 157.28,168.16 145.53,164.81 136.79,204.27 161.19,207.52 153.73,270.86" type="landuse"/>
   <poly color="237,199,255" fill="1" id="13859465#1" layer="-1.00" shape="153.73,270.86 166.98,350.09 167.91,354.51 163.22,355.25 102.85,370.60 99.57,384.16 95.43,380.60 81.60,377.51 79.96,385.23 80.17,387.37 81.38,391.80 78.37,392.59 79.31,397.41 80.67,403.72 88.11,402.12 88.91,406.30 89.73,410.65 82.23,412.45 82.68,414.36 83.63,418.39 84.97,424.14 97.87,420.97 173.90,403.71 226.22,392.31 280.07,379.05 274.89,356.65 267.73,316.17 261.86,270.91 252.59,271.78 253.83,282.59 235.66,284.63 233.94,270.94 228.89,215.79 214.78,215.10 216.00,200.90 224.80,202.27 236.43,142.95 166.19,127.30 157.28,168.16 145.53,164.81 136.79,204.27 161.19,207.52 153.73,270.86" type="shop"/>
   <poly color="red" fill="1" id="139884038" layer="-1.00" shape="750.46,241.27 748.97,236.83 749.65,236.50 746.15,229.77 745.53,228.82 738.68,216.03 731.44,202.54 724.59,189.76 718.73,178.85 706.07,185.38 707.40,187.97 681.44,203.01 664.79,214.15 666.71,217.40 660.53,222.05 675.24,260.91 676.07,263.28 674.33,263.24 679.48,285.69 704.52,280.02 727.20,274.95 740.66,271.77 740.58,271.26 741.99,270.90 742.77,274.14 751.85,271.88 759.79,269.76 751.98,240.79 750.46,241.27" type="building"/>
   <poly color="237,199,199" fill="1" id="14879154" layer="-1.00" shape="368.49,726.28 324.06,706.04 321.13,704.75 318.19,703.49 316.53,707.11 310.93,704.22 301.24,708.01 300.39,711.95 298.27,714.94 294.42,715.33 290.33,717.98 288.04,722.39 288.39,728.08 290.76,731.12 290.09,734.45 286.87,737.92 289.96,745.93 296.85,750.13 373.92,748.25 377.67,742.33 374.17,731.99 371.11,730.57 367.29,728.80 368.49,726.28" type="amenity"/>
   <poly color="red" fill="1" id="14879154#1" layer="-1.00" shape="368.49,726.28 324.06,706.04 321.13,704.75 318.19,703.49 316.53,707.11 310.93,704.22 301.24,708.01 300.39,711.95 298.27,714.94 294.42,715.33 290.33,717.98 288.04,722.39 288.39,728.08 290.76,731.12 290.09,734.45 286.87,737.92 289.96,745.93 296.85,750.13 373.92,748.25 377.67,742.33 374.17,731.99 371.11,730.57 367.29,728.80 368.49,726.28" type="building"/>
   <poly color="207,245,201" fill="1" id="14879154#2" layer="-2.00" shape="368.49,726.28 324.06,706.04 321.13,704.75 318.19,703.49 316.53,707.11 310.93,704.22 301.24,708.01 300.39,711.95 298.27,714.94 294.42,715.33 290.33,717.98 288.04,722.39 288.39,728.08 290.76,731.12 290.09,734.45 286.87,737.92 289.96,745.93 296.85,750.13 373.92,748.25 377.67,742.33 374.17,731.99 371.11,730.57 367.29,728.80 368.49,726.28" type="tourism"/>
   <poly color="194,194,130" fill="1" id="150792363" layer="-3.00" shape="398.24,503.75 448.10,491.95 448.38,508.20 450.51,536.91 448.79,538.60 406.18,544.47 398.24,503.75" type="landuse"/>
   <poly color="red" fill="1" id="150792365" layer="-1.00" shape="406.87,549.55 411.44,548.79 423.47,546.79 426.47,546.28 428.97,545.87 435.56,545.64 440.26,545.48 441.47,545.44 447.50,545.71 454.34,546.00 445.23,574.76 440.30,592.09 439.33,595.24 416.27,600.85 415.36,596.78 414.38,592.31 416.89,591.56 429.30,586.15 428.63,578.28 430.61,566.55 436.29,565.68 435.47,557.19 429.35,557.86 420.03,558.88 419.11,560.24 419.83,565.60 409.74,567.38 409.11,563.58 408.60,560.68 406.87,549.55" type="building"/>
   <poly color="194,194,130" fill="1" id="150792367" layer="-3.00" shape="346.60,554.29 342.06,517.60 343.74,515.16 393.29,504.27 399.79,545.57 346.60,554.29" type="landuse"/>
   <poly color="red" fill="1" id="150942242" layer="-1.00" shape="311.55,175.50 331.94,173.64 330.38,160.64 309.90,162.33 311.55,175.50" type="building"/>
   <poly color="red" fill="1" id="150942244" layer="-1.00" shape="373.57,225.56 390.38,225.45 389.69,220.28 388.57,220.44 387.05,210.92 388.10,210.76 386.38,199.50 374.38,202.47 373.57,225.56" type="building"/>
   <poly color="207,245,201" fill="1" id="150942244#1" layer="-2.00" shape="373.57,225.56 390.38,225.45 389.69,220.28 388.57,220.44 387.05,210.92 388.10,210.76 386.38,199.50 374.38,202.47 373.57,225.56" type="tourism"/>
   <poly color="184,184,179" fill="1" id="152553562" layer="-1.00" shape="835.21,17.98" type="parking"/>
   <poly color="128,255,128" fill="1" id="163206104" layer="-1.00" shape="427.55,638.87 417.27,624.79 420.31,608.73 420.89,605.65 438.35,601.03 443.65,603.00 441.66,609.44 448.71,611.60 452.42,599.66 486.26,609.29 483.32,618.62 482.32,621.74 399.39,677.98 396.94,675.64 395.05,675.27 391.92,677.35 389.58,678.76 387.35,674.36 384.57,668.91 423.63,641.39 425.47,640.21 427.55,638.87" type="historic"/>
   <poly color="207,245,201" fill="1" id="163206104#1" layer="-2.00" shape="427.55,638.87 417.27,624.79 420.31,608.73 420.89,605.65 438.35,601.03 443.65,603.00 441.66,609.44 448.71,611.60 452.42,599.66 486.26,609.29 483.32,618.62 482.32,621.74 399.39,677.98 396.94,675.64 395.05,675.27 391.92,677.35 389.58,678.76 387.35,674.36 384.57,668.91 423.63,641.39 425.47,640.21 427.55,638.87" type="tourism"/>
   <poly color="red" fill="1" id="163468473" layer="-1.00" shape="789.61,531.46 806.77,512.56 808.30,510.86 803.80,506.85 802.32,508.50 785.14,527.42 789.61,531.46" type="building"/>
   <poly color="194,194,130" fill="1" id="163468477" layer="-3.00" shape="740.48,608.01 759.71,589.94 782.02,618.28 782.92,620.57 783.31,622.47 783.38,624.85 782.87,627.48 781.77,629.51 780.02,631.40 778.01,632.68 775.60,633.69 773.42,634.25 770.95,634.02 767.68,632.97 740.48,608.01" type="landuse"/>
   <poly color="red" fill="1" id="163826333" layer="-1.00" shape="689.89,543.43 688.34,535.16 693.58,534.19 695.13,542.45 689.89,543.43" type="building"/>
   <poly color="red" fill="1" id="163826334" layer="-1.00" shape="728.67,535.45 728.75,543.48 738.66,544.33 744.54,537.52 743.23,532.54 728.67,535.45" type="building"/>
   <poly color="207,245,201" fill="1" id="166685051" layer="-2.00" shape="12.27,521.69 8.76,517.98 12.51,507.79 17.47,510.17 12.27,521.69" type="leisure"/>
   <poly color="207,245,201" fill="0" id="166685053" layer="-2.00" shape="4.33,529.88 7.34,532.57" type="leisure"/>
   <poly color="207,245,201" fill="1" id="166685054" layer="-2.00" shape="13.74,503.44 19.60,505.69 24.88,491.18 16.04,493.26 13.74,503.44" type="leisure"/>
   <poly color="red" fill="1" id="169546291" layer="-1.00" shape="632.01,408.68 639.35,414.57 643.79,409.06 636.44,403.18 632.01,408.68" type="building"/>
   <poly color="207,245,201" fill="1" id="169546291#1" layer="-2.00" shape="632.01,408.68 639.35,414.57 643.79,409.06 636.44,403.18 632.01,408.68" type="tourism"/>
   <poly color="red" fill="1" id="171928281" layer="-1.00" shape="397.83,105.38 398.38,85.47 376.83,84.88 350.69,84.17 350.14,104.08 397.83,105.38" type="building"/>
   <poly color="207,245,201" fill="1" id="171928281#1" layer="-2.00" shape="397.83,105.38 398.38,85.47 376.83,84.88 350.69,84.17 350.14,104.08 397.83,105.38" type="tourism"/>
   <poly color="red" fill="1" id="172618893" layer="-1.00" shape="116.52,286.99 113.63,299.83 111.17,310.73 95.43,380.60 81.60,377.51 82.63,372.97 87.05,353.35 91.53,333.45 96.05,313.39 98.32,303.34 100.67,292.89 102.70,283.89 105.33,284.47 116.52,286.99" type="building"/>
   <poly color="red" fill="1" id="174903363" layer="-1.00" shape="795.28,328.13 804.41,319.65 806.90,317.34 812.33,323.14 810.68,324.67 812.36,326.48 805.89,332.49 805.07,331.62 804.27,330.77 800.78,334.02 795.28,328.13" type="building"/>
   <poly color="207,245,201" fill="1" id="174903363#1" layer="-2.00" shape="795.28,328.13 804.41,319.65 806.90,317.34 812.33,323.14 810.68,324.67 812.36,326.48 805.89,332.49 805.07,331.62 804.27,330.77 800.78,334.02 795.28,328.13" type="tourism"/>
   <poly color="red" fill="1" id="175926257" layer="-1.00" shape="376.47,614.05 394.83,605.87 393.92,597.98 374.45,601.29 376.47,614.05" type="building"/>
   <poly color="207,245,201" fill="1" id="175926257#1" layer="-2.00" shape="376.47,614.05 394.83,605.87 393.92,597.98 374.45,601.29 376.47,614.05" type="tourism"/>
   <poly color="red" fill="1" id="179325581" layer="-1.00" shape="644.91,427.50 649.05,423.49 652.63,419.99 656.40,416.30 660.49,412.36 651.31,405.16 642.57,398.18 641.17,397.02 635.81,392.85 621.90,410.33 644.91,427.50" type="building"/>
   <poly color="207,245,201" fill="1" id="179325581#1" layer="-2.00" shape="644.91,427.50 649.05,423.49 652.63,419.99 656.40,416.30 660.49,412.36 651.31,405.16 642.57,398.18 641.17,397.02 635.81,392.85 621.90,410.33 644.91,427.50" type="tourism"/>
   <poly color="194,194,130" fill="1" id="188253811" layer="-3.00" shape="107.27,631.23 101.46,640.91 101.02,640.52 100.81,640.65 100.77,640.97 100.66,641.30 100.43,641.55 100.19,641.75 99.90,641.92 99.57,642.01 99.22,641.99 98.92,641.88 98.67,641.72 98.43,641.54 98.21,641.30 98.05,641.00 97.99,640.70 97.99,640.32 98.04,639.93 98.11,639.56 98.33,639.19 98.54,638.87 98.82,638.67 98.81,638.17 98.43,638.27 98.02,638.48 97.70,638.70 97.40,638.95 97.16,639.26 97.00,639.60 96.92,639.98 96.93,640.33 96.97,640.84 94.44,639.26 94.72,639.09 94.93,638.93 95.17,638.73 95.38,638.53 95.54,638.33 95.67,638.12 95.78,637.89 95.81,637.64 95.85,637.42 95.87,637.12 95.87,636.85 95.83,636.62 95.76,636.37 95.71,636.11 95.65,635.94 95.36,636.22 95.40,636.73 95.37,637.12 95.23,637.49 95.03,637.70 94.82,637.92 94.58,638.12 94.35,638.30 94.10,638.45 93.78,638.52 93.40,638.54 93.12,638.50 92.83,638.38 92.56,638.23 92.37,638.05 92.23,637.83 92.10,637.54 92.03,637.24 92.03,636.97 92.08,636.73 92.18,636.49 92.34,636.18 92.43,636.07 92.65,635.84 92.71,635.46 92.21,635.11 97.74,625.79 98.07,626.38 98.43,626.98 98.86,627.48 99.30,628.01 99.72,628.41 99.50,628.79 100.38,629.76 100.51,630.28 100.58,630.78 100.12,631.83 100.68,632.19 101.68,631.20 102.44,630.95 102.97,630.94 103.67,631.29 103.99,630.72 104.93,631.11 105.67,631.22 106.29,631.17 106.81,631.11 107.27,631.23" type="landuse"/>
   <poly color="194,194,130" fill="1" id="188253812" layer="-3.00" shape="126.47,643.87 120.93,653.10 120.48,652.73 120.27,652.84 120.23,653.16 120.13,653.49 119.90,653.74 119.65,653.94 119.37,654.11 119.03,654.20 118.68,654.18 118.38,654.09 118.14,653.91 117.89,653.73 117.67,653.49 117.51,653.19 117.45,652.89 117.46,652.51 117.51,652.12 117.58,651.75 117.80,651.38 118.00,651.06 118.28,650.86 118.27,650.36 117.89,650.46 117.48,650.67 117.16,650.89 116.86,651.14 116.62,651.45 116.46,651.79 116.39,652.17 116.39,652.52 116.44,653.03 113.90,651.45 114.18,651.28 114.39,651.12 114.63,650.92 114.85,650.72 115.01,650.52 115.13,650.31 115.24,650.08 115.27,649.83 115.32,649.61 115.34,649.31 115.33,649.05 115.29,648.81 115.22,648.56 115.17,648.30 115.11,648.14 114.83,648.41 114.86,648.92 114.83,649.31 114.69,649.68 114.50,649.89 114.28,650.11 114.04,650.31 113.81,650.49 113.57,650.64 113.24,650.71 112.86,650.73 112.58,650.69 112.29,650.58 112.03,650.42 111.84,650.24 111.70,650.02 111.56,649.73 111.50,649.43 111.49,649.18 111.54,648.92 111.64,648.68 111.81,648.37 111.89,648.26 112.11,648.03 112.17,647.65 111.68,647.30 117.20,637.98 117.53,638.57 117.89,639.17 118.32,639.67 118.76,640.20 119.19,640.60 118.97,640.98 119.84,641.95 119.97,642.47 120.04,642.97 119.58,644.02 120.14,644.38 121.14,643.39 121.60,643.26 122.19,643.29 123.04,643.73 123.36,643.18 124.38,643.60 124.77,643.73 125.28,643.86 125.91,643.90 126.47,643.87" type="landuse"/>
   <poly color="194,194,130" fill="1" id="192284536" layer="-3.00" shape="28.07,571.94 29.17,583.00 48.79,593.73 49.85,591.92 50.49,592.32 49.77,594.33 55.08,597.64 58.81,599.93 60.12,597.81 62.20,599.09 70.53,583.80 68.88,583.24 68.17,579.88 65.12,577.49 60.36,575.44 48.80,574.39 43.52,573.55 31.73,571.13 29.93,571.16 28.07,571.94" type="landuse"/>
   <poly color="194,194,130" fill="1" id="192288899" layer="-3.00" shape="28.14,555.16 25.60,559.23 22.30,564.82 24.76,565.52 26.66,565.78 27.86,565.47 28.79,564.42 36.35,550.69 33.46,551.40 30.84,552.67 29.54,553.72 28.14,555.16" type="landuse"/>
   <poly color="194,194,130" fill="0" id="192288903" layer="-3.00" shape="4.39,596.43 19.93,568.69 23.71,569.20 24.47,569.66 24.84,570.31 24.86,571.44" type="landuse"/>
   <poly color="194,194,130" fill="1" id="192289081" layer="-3.00" shape="54.96,549.91 75.91,554.33 75.06,559.87 74.87,565.12 75.50,568.77 76.30,571.66 76.80,573.81 76.09,575.80 74.99,577.04 73.58,577.44 72.26,577.36 70.84,576.73 69.50,575.25 67.40,573.61 65.13,572.61 60.78,571.46 51.74,570.31 48.25,569.90 48.32,568.68 42.94,567.83 42.78,569.15 32.50,567.08 31.93,566.34 32.00,565.39 40.48,549.88 43.48,549.36 46.54,549.25 49.74,549.28 52.42,549.48 54.96,549.91" type="landuse"/>
   <poly color="194,194,130" fill="1" id="192292236" layer="-3.00" shape="125.86,728.25 123.93,731.05 123.40,730.66 104.95,753.84 117.94,733.18 116.99,732.35 116.61,731.89 116.50,731.23 116.39,730.48 116.57,729.82 119.78,724.45 125.86,728.25" type="landuse"/>
   <poly color="194,194,130" fill="1" id="192292238" layer="-3.00" shape="121.57,633.06 120.17,633.89 119.44,635.02 119.35,636.28 120.19,638.00 122.39,640.18 124.91,641.23 126.63,641.27 128.26,640.70 129.09,639.43 129.19,638.06 128.22,635.99 126.41,634.30 124.10,633.28 121.57,633.06" type="landuse"/>
   <poly color="194,194,130" fill="1" id="192292243" layer="-3.00" shape="102.03,620.82 100.61,621.64 99.87,622.79 99.79,624.07 100.63,625.80 102.84,627.98 105.37,629.03 107.09,629.09 108.75,628.50 109.58,627.22 109.69,625.83 108.71,623.75 106.89,622.06 104.57,621.03 102.03,620.82" type="landuse"/>
   <poly color="194,194,130" fill="1" id="192292245" layer="-3.00" shape="129.98,707.46 135.98,711.20 137.72,708.36 137.05,707.81 154.62,679.85 153.30,679.02 152.08,679.61 150.86,679.82 150.01,679.37 135.66,703.05 134.52,702.51 133.39,702.52 132.47,703.39 129.98,707.46" type="landuse"/>
   <poly color="194,194,130" fill="1" id="192339225" layer="-3.00" shape="93.76,558.99 80.44,555.55 79.66,559.51 79.34,562.80 79.59,566.27 80.69,570.27 82.26,573.63 84.09,576.50 86.29,578.53 89.14,580.45 92.52,581.91 96.14,582.96 100.85,583.34 103.57,583.21 109.47,581.88 113.31,580.97 117.08,580.92 121.91,574.39 117.79,571.09 113.38,567.93 107.11,564.29 103.79,562.66 99.72,560.86 93.76,558.99" type="landuse"/>
   <poly color="237,199,199" fill="1" id="192355383" layer="-1.00" shape="146.31,558.90 145.36,558.36 144.71,557.56 144.39,556.66 144.38,555.73 144.60,554.97 145.08,554.23 145.75,553.67 146.78,553.29 147.48,553.25 148.39,553.48 149.01,553.83 149.87,554.87 150.15,555.79 150.17,556.40 149.91,557.37 149.50,558.02 149.01,558.48 148.47,558.80 147.56,559.05 146.31,558.90" type="amenity"/>
   <poly color="194,194,130" fill="1" id="192355383#1" layer="-3.00" shape="146.31,558.90 145.36,558.36 144.71,557.56 144.39,556.66 144.38,555.73 144.60,554.97 145.08,554.23 145.75,553.67 146.78,553.29 147.48,553.25 148.39,553.48 149.01,553.83 149.87,554.87 150.15,555.79 150.17,556.40 149.91,557.37 149.50,558.02 149.01,558.48 148.47,558.80 147.56,559.05 146.31,558.90" type="landuse"/>
   <poly color="207,245,201" fill="1" id="192355383#2" layer="-2.00" shape="146.31,558.90 145.36,558.36 144.71,557.56 144.39,556.66 144.38,555.73 144.60,554.97 145.08,554.23 145.75,553.67 146.78,553.29 147.48,553.25 148.39,553.48 149.01,553.83 149.87,554.87 150.15,555.79 150.17,556.40 149.91,557.37 149.50,558.02 149.01,558.48 148.47,558.80 147.56,559.05 146.31,558.90" type="tourism"/>
   <poly color="194,194,130" fill="1" id="192410248" layer="-3.00" shape="180.85,653.89 176.12,661.76 179.52,663.86 178.07,666.34 191.58,674.73 195.13,668.93 195.84,666.95 195.91,665.36 195.23,663.59 194.06,661.83 180.85,653.89" type="landuse"/>
   <poly color="194,194,130" fill="1" id="192419508" layer="-3.00" shape="244.99,678.76 249.45,678.56 246.93,661.79 243.09,658.33 239.33,652.52 236.77,646.00 234.75,637.97 235.49,631.10 237.77,626.61 233.16,620.61 228.66,623.83 225.91,627.99 224.70,632.71 223.88,640.78 224.01,648.28 225.87,657.26 229.02,666.95 233.28,673.81 236.92,676.57 241.36,678.02 244.99,678.76" type="landuse"/>
   <poly color="194,194,130" fill="1" id="192419509" layer="-3.00" shape="270.96,611.47 275.28,610.84 277.32,609.30 277.24,605.36 275.29,601.46 271.86,598.70 268.26,597.63 258.93,600.43 251.62,602.61 247.91,604.73 244.93,607.60 243.68,611.00 247.47,612.99 252.14,610.10 258.68,608.86 264.51,608.57 270.00,610.17 270.96,611.47" type="landuse"/>
   <poly color="red" fill="1" id="192427759" layer="-1.00" shape="283.79,583.02 282.43,582.44 281.02,582.34 279.66,582.69 278.47,583.45 277.60,584.56 277.11,585.88 277.07,587.28 277.48,588.63 278.30,589.77 279.45,590.60 278.98,590.70 279.43,592.38 281.41,600.87 282.53,600.62 284.40,612.95 284.87,616.06 264.20,618.76 264.30,629.61 249.20,631.19 248.90,628.49 241.49,629.31 242.40,637.28 246.30,636.81 248.67,657.50 250.62,673.39 253.31,696.83 251.22,697.05 251.84,704.53 260.15,703.84 259.86,700.58 308.40,693.97 311.26,693.65 314.11,693.28 315.27,693.11 326.55,691.77 330.80,691.13 358.28,687.41 358.62,689.95 361.72,689.52 361.65,688.34 364.75,688.02 361.62,674.40 347.11,629.85 345.52,630.33 342.70,618.38 345.16,617.93 343.71,609.55 342.22,601.00 339.76,601.42 336.30,575.42 335.91,575.46 336.26,574.89 336.59,573.57 336.48,572.21 335.95,570.97 335.07,569.95 333.90,569.25 332.57,568.95 331.22,569.08 329.98,569.62 329.92,569.33 305.51,576.26 283.64,582.46 283.79,583.02" type="building"/>
   <poly color="128,255,128" fill="1" id="192427759#1" layer="-1.00" shape="283.79,583.02 282.43,582.44 281.02,582.34 279.66,582.69 278.47,583.45 277.60,584.56 277.11,585.88 277.07,587.28 277.48,588.63 278.30,589.77 279.45,590.60 278.98,590.70 279.43,592.38 281.41,600.87 282.53,600.62 284.40,612.95 284.87,616.06 264.20,618.76 264.30,629.61 249.20,631.19 248.90,628.49 241.49,629.31 242.40,637.28 246.30,636.81 248.67,657.50 250.62,673.39 253.31,696.83 251.22,697.05 251.84,704.53 260.15,703.84 259.86,700.58 308.40,693.97 311.26,693.65 314.11,693.28 315.27,693.11 326.55,691.77 330.80,691.13 358.28,687.41 358.62,689.95 361.72,689.52 361.65,688.34 364.75,688.02 361.62,674.40 347.11,629.85 345.52,630.33 342.70,618.38 345.16,617.93 343.71,609.55 342.22,601.00 339.76,601.42 336.30,575.42 335.91,575.46 336.26,574.89 336.59,573.57 336.48,572.21 335.95,570.97 335.07,569.95 333.90,569.25 332.57,568.95 331.22,569.08 329.98,569.62 329.92,569.33 305.51,576.26 283.64,582.46 283.79,583.02" type="historic"/>
   <poly color="207,245,201" fill="1" id="192427759#2" layer="-2.00" shape="283.79,583.02 282.43,582.44 281.02,582.34 279.66,582.69 278.47,583.45 277.60,584.56 277.11,585.88 277.07,587.28 277.48,588.63 278.30,589.77 279.45,590.60 278.98,590.70 279.43,592.38 281.41,600.87 282.53,600.62 284.40,612.95 284.87,616.06 264.20,618.76 264.30,629.61 249.20,631.19 248.90,628.49 241.49,629.31 242.40,637.28 246.30,636.81 248.67,657.50 250.62,673.39 253.31,696.83 251.22,697.05 251.84,704.53 260.15,703.84 259.86,700.58 308.40,693.97 311.26,693.65 314.11,693.28 315.27,693.11 326.55,691.77 330.80,691.13 358.28,687.41 358.62,689.95 361.72,689.52 361.65,688.34 364.75,688.02 361.62,674.40 347.11,629.85 345.52,630.33 342.70,618.38 345.16,617.93 343.71,609.55 342.22,601.00 339.76,601.42 336.30,575.42 335.91,575.46 336.26,574.89 336.59,573.57 336.48,572.21 335.95,570.97 335.07,569.95 333.90,569.25 332.57,568.95 331.22,569.08 329.98,569.62 329.92,569.33 305.51,576.26 283.64,582.46 283.79,583.02" type="tourism"/>
   <poly color="194,194,130" fill="1" id="192463192" layer="-3.00" shape="180.71,715.78 178.84,714.47 172.03,725.78 172.79,726.61 173.18,727.45 173.20,728.29 173.02,728.95 181.48,734.15 184.18,729.54 182.43,728.00 180.82,725.63 179.60,721.60 179.83,717.40 180.71,715.78" type="landuse"/>
   <poly color="207,245,201" fill="1" id="192463193" layer="-2.00" shape="180.25,742.13 182.19,738.98 192.29,745.18 190.35,748.33 180.25,742.13" type="leisure"/>
   <poly color="194,194,130" fill="1" id="192463195" layer="-3.00" shape="182.27,712.90 184.67,710.26 188.48,708.48 192.68,708.10 196.44,709.03 200.93,702.28 194.90,694.35 192.95,695.70 190.48,699.58 189.73,700.24 188.90,700.64 187.95,700.46 187.38,700.11 180.63,711.75 182.27,712.90" type="landuse"/>
   <poly color="207,245,201" fill="1" id="192463197" layer="-2.00" shape="179.37,737.37 177.45,740.49 169.03,735.34 170.95,732.22 179.37,737.37" type="leisure"/>
   <poly color="194,194,130" fill="1" id="192463199" layer="-3.00" shape="202.55,725.10 205.99,727.26 211.91,717.84 202.57,704.87 199.27,710.88 200.77,712.38 202.49,714.70 203.71,718.73 203.52,722.73 202.55,725.10" type="landuse"/>
   <poly color="194,194,130" fill="1" id="192463201" layer="-3.00" shape="186.87,731.29 184.22,735.79 194.23,741.99 195.13,741.19 196.10,740.77 197.09,740.76 204.13,729.70 200.74,727.92 199.09,729.74 197.40,730.96 195.35,731.69 192.97,732.29 188.94,732.23 186.87,731.29" type="landuse"/>
   <poly color="194,194,130" fill="1" id="192464450" layer="-3.00" shape="187.06,728.10 189.98,729.25 193.12,729.32 196.09,728.32 198.54,726.38 200.25,723.51 200.80,720.43 200.25,717.35 198.69,714.64 196.47,712.73 193.56,711.59 190.42,711.51 187.45,712.51 185.13,714.32 183.44,716.95 182.75,720.00 183.15,723.10 184.58,725.88 187.06,728.10" type="landuse"/>
   <poly color="237,199,199" fill="1" id="192464451" layer="-1.00" shape="189.05,724.16 190.57,724.86 192.24,725.01 193.86,724.57 195.22,723.60 196.34,721.83 196.63,720.18 196.33,718.54 195.48,717.10 194.56,716.26 193.04,715.56 191.37,715.42 189.75,715.86 188.23,716.98 187.34,718.39 186.98,720.02 187.21,721.68 187.99,723.15 189.05,724.16" type="amenity"/>
   <poly color="194,194,130" fill="1" id="192464451#1" layer="-3.00" shape="189.05,724.16 190.57,724.86 192.24,725.01 193.86,724.57 195.22,723.60 196.34,721.83 196.63,720.18 196.33,718.54 195.48,717.10 194.56,716.26 193.04,715.56 191.37,715.42 189.75,715.86 188.23,716.98 187.34,718.39 186.98,720.02 187.21,721.68 187.99,723.15 189.05,724.16" type="landuse"/>
   <poly color="181,209,209" fill="1" id="192464451#2" layer="-4.00" shape="189.05,724.16 190.57,724.86 192.24,725.01 193.86,724.57 195.22,723.60 196.34,721.83 196.63,720.18 196.33,718.54 195.48,717.10 194.56,716.26 193.04,715.56 191.37,715.42 189.75,715.86 188.23,716.98 187.34,718.39 186.98,720.02 187.21,721.68 187.99,723.15 189.05,724.16" type="water"/>
   <poly color="207,245,201" fill="1" id="192464453" layer="-2.00" shape="173.78,752.56" type="leisure"/>
   <poly color="207,245,201" fill="1" id="192464454" layer="-2.00" shape="171.08,750.94 160.73,748.92 162.65,745.79 171.08,750.94" type="leisure"/>
   <poly color="194,194,130" fill="1" id="192468228" layer="-3.00" shape="158.65,752.16 157.76,752.88 156.77,753.17 155.84,752.99 155.40,752.84 158.65,752.16" type="landuse"/>
   <poly color="194,194,130" fill="1" id="192498031" layer="-3.00" shape="230.44,672.45 232.46,675.04 234.76,677.17 238.56,679.16 241.49,680.05 245.15,680.64 249.54,680.49 251.22,697.05 245.35,692.17 242.69,690.06 239.51,685.92 236.21,681.76 232.09,676.38 229.92,672.83 230.44,672.45" type="landuse"/>
   <poly color="184,184,179" fill="1" id="192521960" layer="-1.00" shape="267.12,713.45 264.17,715.87 274.45,728.39 277.42,725.97 267.12,713.45" type="parking"/>
   <poly color="128,255,128" fill="1" id="192745235" layer="-1.00" shape="26.92,658.56 25.31,657.63 23.96,656.77 23.36,654.26 25.20,651.23 27.44,650.70 28.76,651.54 30.49,652.55 31.03,654.79 29.04,658.05 26.92,658.56" type="historic"/>
   <poly color="128,255,128" fill="0" id="192745237" layer="-1.00" shape="9.64,691.03 23.25,668.03 24.62,665.78 26.33,662.90 33.04,651.58 35.14,648.04 36.66,645.48 50.31,622.46 55.29,614.07 57.05,610.96 55.47,609.98 60.90,601.25 62.20,599.09 60.12,597.81 58.81,599.93 55.08,597.64 28.70,644.04 25.73,649.27 24.60,648.58 21.17,654.48 22.36,655.20 18.56,661.89" type="historic"/>
   <poly color="207,245,201" fill="0" id="192745237#1" layer="-2.00" shape="9.64,691.03 23.25,668.03 24.62,665.78 26.33,662.90 33.04,651.58 35.14,648.04 36.66,645.48 50.31,622.46 55.29,614.07 57.05,610.96 55.47,609.98 60.90,601.25 62.20,599.09 60.12,597.81 58.81,599.93 55.08,597.64 28.70,644.04 25.73,649.27 24.60,648.58 21.17,654.48 22.36,655.20 18.56,661.89" type="tourism"/>