<?xml version="1.0" encoding="utf-8"?><!-- generated on 10/11/17 17:50:46 by SUMO netconvert Version 0.25.0
<?xml version="1.0" encoding="UTF-8"?>

<configuration xmlns:xsi="http://www.w3.org/2001/XMLSchema-instance" xsi:noNamespaceSchemaLocation="http://sumo.dlr.de/xsd/netconvertConfiguration.xsd">

    <input>
        <type-files value="osmNetconvert.typ.xml"/>
        <osm-files value="DD_Altstadt_historical_800.osm"/>
    </input>

    <output>
        <output-file value="DD_Altstadt_historical_800.net.xml"/>
    </output>

    <projection>
        <proj.utm value="true"/>
    </projection>

    <edge_removal>
        <remove-edges.by-type value="highway.track,highway.unsurfaced,highway.raceway,highway.bridleway,highway.path,highway.footway,highway.pedestrian,highway.cycleway,highway.step,highway.steps,highway.stairs,highway.bus_guideway,highway.ford,railway.rail,railway.tram,railway.light_rail,railway.subway,railway.preserved,railway.narrow_gauge,railway.monorail,railway.funicular"/>
    </edge_removal>

</configuration>
-->
<net version="0.25">
   <location convBoundary="0.00,0.00,843.69,749.96" netOffset="-411170.97,-5655793.26" origBoundary="13.732713,51.046900,13.744700,51.053599" projParameter="+proj=utm +zone=33 +ellps=WGS84 +datum=WGS84 +units=m +no_defs"/>
   <type allow="pedestrian" id="highway.bridleway" numLanes="1" oneway="1" priority="1" speed="2.78" width="2.00"/>
   <type allow="bus" id="highway.bus_guideway" numLanes="1" oneway="1" priority="1" speed="8.33"/>
   <type allow="bicycle" id="highway.cycleway" numLanes="1" oneway="0" priority="1" speed="5.56" width="1.00"/>
   <type allow="pedestrian" id="highway.footway" numLanes="1" oneway="1" priority="1" speed="8.33" width="2.00"/>
   <type allow="army" id="highway.ford" numLanes="1" oneway="0" priority="1" speed="2.78"/>
   <type disallow="tram rail_urban rail rail_electric ship" id="highway.living_street" numLanes="1" oneway="0" priority="3" speed="2.78"/>
   <type allow="private emergency authority army vip passenger hov taxi bus coach delivery truck trailer motorcycle evehicle custom1 custom2" id="highway.motorway" numLanes="2" oneway="1" priority="13" speed="44.44"/>
   <type allow="private emergency authority army vip passenger hov taxi bus coach delivery truck trailer motorcycle evehicle custom1 custom2" id="highway.motorway_link" numLanes="1" oneway="1" priority="12" speed="22.22"/>
   <type allow="bicycle pedestrian" id="highway.path" numLanes="1" oneway="1" priority="1" speed="2.78" width="2.00"/>
   <type allow="pedestrian" id="highway.pedestrian" numLanes="1" oneway="1" priority="1" speed="8.33" width="2.00"/>
   <type disallow="tram rail_urban rail rail_electric ship" id="highway.primary" numLanes="2" oneway="0" priority="9" speed="27.78"/>
   <type disallow="tram rail_urban rail rail_electric ship" id="highway.primary_link" numLanes="1" oneway="0" priority="8" speed="22.22"/>
   <type allow="vip" id="highway.raceway" numLanes="2" oneway="0" priority="14" speed="83.33"/>
   <type disallow="tram rail_urban rail rail_electric ship" id="highway.residential" numLanes="1" oneway="0" priority="4" speed="13.89"/>
   <type disallow="tram rail_urban rail rail_electric ship" id="highway.secondary" numLanes="2" oneway="0" priority="7" speed="27.78"/>
   <type disallow="tram rail_urban rail rail_electric ship" id="highway.secondary_link" numLanes="1" oneway="0" priority="6" speed="22.22"/>
   <type allow="delivery bicycle pedestrian" id="highway.service" numLanes="1" oneway="0" priority="2" speed="5.56"/>
   <type disallow="tram rail_urban rail rail_electric ship" id="highway.services" numLanes="1" oneway="0" priority="1" speed="8.33"/>
   <type allow="pedestrian" id="highway.stairs" numLanes="1" oneway="1" priority="1" speed="1.39" width="2.00"/>
   <type allow="pedestrian" id="highway.step" numLanes="1" oneway="1" priority="1" speed="1.39" width="2.00"/>
   <type allow="pedestrian" id="highway.steps" numLanes="1" oneway="1" priority="1" speed="1.39" width="2.00"/>
   <type disallow="tram rail_urban rail rail_electric ship" id="highway.tertiary" numLanes="1" oneway="0" priority="6" speed="22.22"/>
   <type disallow="tram rail_urban rail rail_electric ship" id="highway.tertiary_link" numLanes="1" oneway="0" priority="5" speed="22.22"/>
   <type disallow="tram rail_urban rail rail_electric ship" id="highway.track" numLanes="1" oneway="0" priority="1" speed="5.56"/>
   <type disallow="tram rail_urban rail rail_electric bicycle pedestrian ship" id="highway.trunk" numLanes="2" oneway="0" priority="11" speed="27.78"/>
   <type disallow="tram rail_urban rail rail_electric bicycle pedestrian ship" id="highway.trunk_link" numLanes="1" oneway="0" priority="10" speed="22.22"/>
   <type disallow="tram rail_urban rail rail_electric ship" id="highway.unclassified" numLanes="1" oneway="0" priority="5" speed="13.89"/>
   <type disallow="tram rail_urban rail rail_electric ship" id="highway.unsurfaced" numLanes="1" oneway="0" priority="1" speed="8.33"/>
   <type allow="rail_urban" id="railway.light_rail" numLanes="1" oneway="1" priority="15" speed="27.78"/>
   <type allow="rail" id="railway.preserved" numLanes="1" oneway="1" priority="15" speed="27.78"/>
   <type allow="rail rail_electric" id="railway.rail" numLanes="1" oneway="1" priority="15" speed="83.33"/>
   <type allow="rail_urban" id="railway.subway" numLanes="1" oneway="1" priority="15" speed="27.78"/>
   <type allow="tram" id="railway.tram" numLanes="1" oneway="1" priority="15" speed="13.89"/>
   <edge function="internal" id=":1148785855_0">
      <lane allow="delivery bicycle pedestrian" id=":1148785855_0_0" index="0" length="4.82" shape="185.09,547.11 186.50,547.58 187.11,548.26 186.93,549.17 185.95,550.29" speed="5.56"/>
   </edge>
   <edge function="internal" id=":1150742483_0">
      <lane disallow="tram rail_urban rail rail_electric ship" id=":1150742483_0_0" index="0" length="0.22" shape="36.99,441.85 37.17,441.74" speed="5.56"/>
   </edge>
   <edge function="internal" id=":1150742515_0">
      <lane disallow="tram rail_urban rail rail_electric ship" id=":1150742515_0_0" index="0" length="2.22" shape="812.72,296.93 811.52,298.81" speed="8.33"/>
   </edge>
   <edge function="internal" id=":1150742577_0">
      <lane disallow="tram rail_urban rail rail_electric ship" id=":1150742577_0_0" index="0" length="0.34" shape="67.22,438.36 67.56,438.33" speed="5.56"/>
   </edge>
   <edge function="internal" id=":1150742636_0">
      <lane disallow="tram rail_urban rail rail_electric ship" id=":1150742636_0_0" index="0" length="0.10" shape="73.20,437.17 73.18,437.18" speed="5.56"/>
   </edge>
   <edge function="internal" id=":1150742662_0">
      <lane disallow="tram rail_urban rail rail_electric ship" id=":1150742662_0_0" index="0" length="0.26" shape="50.43,466.04 50.18,466.09" speed="5.56"/>
   </edge>
   <edge function="internal" id=":1150742693_0">
      <lane disallow="tram rail_urban rail rail_electric ship" id=":1150742693_0_0" index="0" length="0.10" shape="77.01,456.38 77.01,456.38" speed="5.56"/>
   </edge>
   <edge function="internal" id=":1150742748_0">
      <lane disallow="tram rail_urban rail rail_electric ship" id=":1150742748_0_0" index="0" length="0.28" shape="391.70,16.65 391.79,16.64" speed="13.89"/>
      <lane disallow="tram rail_urban rail rail_electric ship" id=":1150742748_0_1" index="1" length="0.28" shape="391.72,19.95 392.00,19.94" speed="13.89"/>
      <lane disallow="tram rail_urban rail rail_electric ship" id=":1150742748_0_2" index="2" length="0.28" shape="391.74,23.25 392.20,23.23" speed="13.89"/>
   </edge>
   <edge function="internal" id=":1150742769_0">
      <lane disallow="tram rail_urban rail rail_electric ship" id=":1150742769_0_0" index="0" length="0.10" shape="807.55,296.43 807.55,296.43" speed="13.89"/>
   </edge>
   <edge function="internal" id=":1186308959_0">
      <lane disallow="tram rail_urban rail rail_electric ship" id=":1186308959_0_0" index="0" length="0.10" shape="181.39,632.09 181.40,632.11" speed="8.33"/>
   </edge>
   <edge function="internal" id=":1186308959_1">
      <lane disallow="tram rail_urban rail rail_electric ship" id=":1186308959_1_0" index="0" length="2.41" shape="181.39,632.09 181.23,630.62 181.60,629.77" speed="8.33"/>
   </edge>
   <edge function="internal" id=":1186308959_4">
      <lane id=":1186308959_4_0" index="0" length="2.41" shape="181.60,629.77 182.50,629.56 183.92,629.98" speed="8.33"/>
   </edge>
   <edge function="internal" id=":1186308959_2">
      <lane disallow="tram rail_urban rail rail_electric ship" id=":1186308959_2_0" index="0" length="0.10" shape="183.92,629.98 183.92,629.98" speed="8.33"/>
   </edge>
   <edge function="internal" id=":1186308959_3">
      <lane disallow="tram rail_urban rail rail_electric ship" id=":1186308959_3_0" index="0" length="2.41" shape="183.92,629.98 184.09,631.45 183.73,632.30" speed="8.33"/>
   </edge>
   <edge function="internal" id=":1186308959_5">
      <lane id=":1186308959_5_0" index="0" length="2.41" shape="183.73,632.30 182.83,632.52 181.40,632.11" speed="8.33"/>
   </edge>
   <edge function="internal" id=":1198126998_0">
      <lane allow="delivery bicycle pedestrian" id=":1198126998_0_0" index="0" length="0.10" shape="718.69,219.97 718.69,219.97" speed="5.56"/>
   </edge>
   <edge function="internal" id=":1198127013_0">
      <lane allow="delivery bicycle pedestrian" id=":1198127013_0_0" index="0" length="0.10" shape="688.07,233.64 688.07,233.64" speed="5.56"/>
   </edge>
   <edge function="internal" id=":1198172226_0">
      <lane allow="delivery bicycle pedestrian" id=":1198172226_0_0" index="0" length="0.29" shape="693.73,254.67 693.63,254.39" speed="5.56"/>
   </edge>
   <edge function="internal" id=":1198172229_0">
      <lane allow="delivery bicycle pedestrian" id=":1198172229_0_0" index="0" length="0.10" shape="697.82,217.60 697.82,217.60" speed="5.56"/>
   </edge>
   <edge function="internal" id=":1203988011_0">
      <lane allow="delivery bicycle pedestrian" id=":1203988011_0_0" index="0" length="0.10" shape="712.14,257.76 712.14,257.76" speed="5.56"/>
   </edge>
   <edge function="internal" id=":1203988012_0">
      <lane allow="delivery bicycle pedestrian" id=":1203988012_0_0" index="0" length="0.10" shape="722.48,254.79 722.48,254.79" speed="5.56"/>
   </edge>
   <edge function="internal" id=":1203988013_0">
      <lane allow="delivery bicycle pedestrian" id=":1203988013_0_0" index="0" length="0.48" shape="728.42,252.68 728.00,252.90" speed="5.56"/>
   </edge>
   <edge function="internal" id=":1203988015_0">
      <lane allow="delivery bicycle pedestrian" id=":1203988015_0_0" index="0" length="0.25" shape="728.39,237.65 728.50,237.87" speed="5.56"/>
   </edge>
   <edge function="internal" id=":1203988020_0">
      <lane allow="delivery bicycle pedestrian" id=":1203988020_0_0" index="0" length="0.10" shape="692.22,248.92 692.22,248.92" speed="5.56"/>
   </edge>
   <edge function="internal" id=":1231348481_0">
      <lane disallow="tram rail_urban rail rail_electric ship" id=":1231348481_0_0" index="0" length="0.10" shape="175.43,413.26 175.43,413.26" speed="5.56"/>
   </edge>
   <edge function="internal" id=":1243241787_0">
      <lane disallow="tram rail_urban rail rail_electric ship" id=":1243241787_0_0" index="0" length="0.10" shape="721.22,157.21 721.22,157.21" speed="5.56"/>
   </edge>
   <edge function="internal" id=":1310067415_0">
      <lane allow="delivery bicycle pedestrian" id=":1310067415_0_0" index="0" length="5.02" shape="661.21,165.73 662.03,166.83 663.01,167.40 664.14,167.44 665.42,166.93" speed="5.56"/>
   </edge>
   <edge function="internal" id=":1310067415_1">
      <lane disallow="tram rail_urban rail rail_electric ship" id=":1310067415_1_0" index="0" length="4.45" shape="661.21,165.73 663.33,169.64" speed="5.56"/>
   </edge>
   <edge function="internal" id=":1310067419_0">
      <lane allow="delivery bicycle pedestrian" id=":1310067419_0_0" index="0" length="4.82" shape="700.19,173.50 700.09,174.98 699.59,175.75 698.67,175.81 697.33,175.15" speed="5.56"/>
   </edge>
   <edge function="internal" id=":1310067420_0">
      <lane allow="delivery bicycle pedestrian" id=":1310067420_0_0" index="0" length="5.12" shape="675.64,169.26 674.93,168.35 673.95,167.97 672.70,168.10 671.18,168.76" speed="5.56"/>
   </edge>
   <edge function="internal" id=":1310067420_1">
      <lane allow="delivery bicycle pedestrian" id=":1310067420_1_0" index="0" length="4.26" shape="675.64,169.26 674.83,167.67 674.19,166.53 673.74,165.86 673.46,165.64" speed="5.56"/>
   </edge>
   <edge function="internal" id=":1310067420_2">
      <lane allow="delivery bicycle pedestrian" id=":1310067420_2_0" index="0" length="9.77" shape="675.64,169.26 670.99,160.67" speed="5.56"/>
   </edge>
   <edge function="internal" id=":1310067420_3">
      <lane allow="delivery bicycle pedestrian" id=":1310067420_3_0" index="0" length="10.67" shape="675.64,169.26 674.68,166.42 674.76,163.95 675.89,161.84 678.07,160.08" speed="5.56"/>
   </edge>
   <edge function="internal" id=":1310067420_4">
      <lane allow="delivery bicycle pedestrian" id=":1310067420_4_0" index="0" length="4.82" shape="675.64,169.26 675.83,167.79 676.39,167.05 677.31,167.05 678.60,167.79" speed="5.56"/>
   </edge>
   <edge function="internal" id=":1310067420_5">
      <lane allow="delivery bicycle pedestrian" id=":1310067420_5_0" index="0" length="5.60" shape="679.73,162.94 678.63,163.84 678.07,164.95 678.07,166.27 678.60,167.79" speed="5.56"/>
   </edge>
   <edge function="internal" id=":1310067420_6">
      <lane allow="delivery bicycle pedestrian" id=":1310067420_6_0" index="0" length="10.35" shape="679.73,162.94 677.18,164.56 675.47,165.88 673.75,167.18 671.18,168.76" speed="5.56"/>
   </edge>
   <edge function="internal" id=":1310067420_7">
      <lane allow="delivery bicycle pedestrian" id=":1310067420_7_0" index="0" length="6.83" shape="679.73,162.94 673.46,165.64" speed="5.56"/>
   </edge>
   <edge function="internal" id=":1310067420_8">
      <lane allow="delivery bicycle pedestrian" id=":1310067420_8_0" index="0" length="10.27" shape="679.73,162.94 677.12,163.99 674.80,163.96 672.75,162.86 670.99,160.67" speed="5.56"/>
   </edge>
   <edge function="internal" id=":1310067420_9">
      <lane allow="delivery bicycle pedestrian" id=":1310067420_9_0" index="0" length="4.82" shape="679.73,162.94 678.24,162.84 677.47,162.34 677.41,161.42 678.07,160.08" speed="5.56"/>
   </edge>
   <edge function="internal" id=":1310067420_10">
      <lane allow="delivery bicycle pedestrian" id=":1310067420_10_0" index="0" length="4.99" shape="673.82,158.98 674.68,160.04 675.67,160.58 676.80,160.59 678.07,160.08" speed="5.56"/>
   </edge>
   <edge function="internal" id=":1310067420_11">
      <lane allow="delivery bicycle pedestrian" id=":1310067420_11_0" index="0" length="10.03" shape="673.82,158.98 675.34,161.54 676.34,163.32 677.28,165.13 678.60,167.79" speed="5.56"/>
   </edge>
   <edge function="internal" id=":1310067420_12">
      <lane allow="delivery bicycle pedestrian" id=":1310067420_12_0" index="0" length="11.63" shape="673.82,158.98 675.06,161.94 675.02,164.55 673.73,166.82 671.18,168.76" speed="5.56"/>
   </edge>
   <edge function="internal" id=":1310067420_13">
      <lane allow="delivery bicycle pedestrian" id=":1310067420_13_0" index="0" length="8.28" shape="673.82,158.98 675.21,161.77 675.62,163.81 675.03,165.10 673.46,165.64" speed="5.56"/>
   </edge>
   <edge function="internal" id=":1310067420_14">
      <lane allow="delivery bicycle pedestrian" id=":1310067420_14_0" index="0" length="4.82" shape="673.82,158.98 673.75,160.47 673.25,161.24 672.33,161.31 670.99,160.67" speed="5.56"/>
   </edge>
   <edge function="internal" id=":1310067420_15">
      <lane allow="delivery bicycle pedestrian" id=":1310067420_15_0" index="0" length="2.91" shape="673.19,162.36 672.62,162.28 672.07,161.98 671.52,161.44 670.99,160.67" speed="5.56"/>
   </edge>
   <edge function="internal" id=":1310067420_16">
      <lane allow="delivery bicycle pedestrian" id=":1310067420_16_0" index="0" length="5.38" shape="673.19,162.36 678.07,160.08" speed="5.56"/>
   </edge>
   <edge function="internal" id=":1310067420_17">
      <lane allow="delivery bicycle pedestrian" id=":1310067420_17_0" index="0" length="8.04" shape="673.19,162.36 674.51,162.62 675.85,163.61 677.21,165.34 678.60,167.79" speed="5.56"/>
   </edge>
   <edge function="internal" id=":1310067420_18">
      <lane allow="delivery bicycle pedestrian" id=":1310067420_18_0" index="0" length="14.47" shape="673.19,162.36 677.27,162.42 678.29,163.50 676.26,165.61 671.18,168.76" speed="5.56"/>
   </edge>
   <edge function="internal" id=":1310067420_19">
      <lane allow="delivery bicycle pedestrian" id=":1310067420_19_0" index="0" length="4.82" shape="673.19,162.36 674.49,163.08 674.97,163.87 674.62,164.72 673.46,165.64" speed="5.56"/>
   </edge>
   <edge function="internal" id=":1310067429_0">
      <lane allow="delivery bicycle pedestrian" id=":1310067429_0_0" index="0" length="5.00" shape="689.16,161.04 688.31,159.96 687.32,159.42 686.19,159.40 684.92,159.91" speed="5.56"/>
   </edge>
   <edge function="internal" id=":1310067429_1">
      <lane allow="delivery bicycle pedestrian" id=":1310067429_1_0" index="0" length="9.47" shape="689.16,161.04 684.48,152.80" speed="5.56"/>
   </edge>
   <edge function="internal" id=":1310067429_2">
      <lane allow="delivery bicycle pedestrian" id=":1310067429_2_0" index="0" length="4.82" shape="689.16,161.04 689.25,159.56 689.76,158.79 690.68,158.73 692.02,159.39" speed="5.56"/>
   </edge>
   <edge function="internal" id=":1310067429_3">
      <lane allow="delivery bicycle pedestrian" id=":1310067429_3_0" index="0" length="9.41" shape="687.37,151.20 692.02,159.39" speed="5.56"/>
   </edge>
   <edge function="internal" id=":1310067429_4">
      <lane allow="delivery bicycle pedestrian" id=":1310067429_4_0" index="0" length="10.28" shape="687.37,151.20 688.37,153.81 688.29,156.13 687.14,158.17 684.92,159.91" speed="5.56"/>
   </edge>
   <edge function="internal" id=":1310067429_5">
      <lane allow="delivery bicycle pedestrian" id=":1310067429_5_0" index="0" length="4.82" shape="687.37,151.20 687.25,152.68 686.73,153.44 685.81,153.48 684.48,152.80" speed="5.56"/>
   </edge>
   <edge function="internal" id=":1310067429_6">
      <lane allow="delivery bicycle pedestrian" id=":1310067429_6_0" index="0" length="5.03" shape="683.26,157.06 684.36,156.20 684.93,155.21 684.97,154.07 684.48,152.80" speed="5.56"/>
   </edge>
   <edge function="internal" id=":1310067429_7">
      <lane allow="delivery bicycle pedestrian" id=":1310067429_7_0" index="0" length="10.33" shape="683.26,157.06 685.89,156.00 688.22,156.03 690.26,157.16 692.02,159.39" speed="5.56"/>
   </edge>
   <edge function="internal" id=":1310067429_8">
      <lane allow="delivery bicycle pedestrian" id=":1310067429_8_0" index="0" length="4.82" shape="683.26,157.06 684.75,157.15 685.52,157.66 685.58,158.58 684.92,159.91" speed="5.56"/>
   </edge>
   <edge function="internal" id=":1310067431_0">
      <lane allow="delivery bicycle pedestrian" id=":1310067431_0_0" index="0" length="4.82" shape="660.93,143.77 661.00,142.28 661.50,141.51 662.42,141.44 663.76,142.08" speed="5.56"/>
   </edge>
   <edge function="internal" id=":1310067435_0">
      <lane allow="delivery bicycle pedestrian" id=":1310067435_0_0" index="0" length="4.82" shape="668.57,166.04 667.27,165.32 666.80,164.53 667.14,163.67 668.31,162.75" speed="5.56"/>
   </edge>
   <edge function="internal" id=":1310067435_1">
      <lane allow="delivery bicycle pedestrian" id=":1310067435_1_0" index="0" length="2.39" shape="668.50,165.13 668.31,162.75" speed="5.56"/>
   </edge>
   <edge function="internal" id=":1310067436_0">
      <lane disallow="tram rail_urban rail rail_electric ship" id=":1310067436_0_0" index="0" length="5.06" shape="667.55,170.80 666.46,171.68 665.90,172.68 665.86,173.82 666.36,175.09" speed="5.56"/>
   </edge>
   <edge function="internal" id=":1310067436_1">
      <lane disallow="tram rail_urban rail rail_electric ship" id=":1310067436_1_0" index="0" length="6.04" shape="663.42,169.81 666.36,175.09" speed="5.56"/>
   </edge>
   <edge function="internal" id=":1310067442_0">
      <lane allow="delivery bicycle pedestrian" id=":1310067442_0_0" index="0" length="4.82" shape="674.48,134.81 674.60,133.32 675.12,132.56 676.04,132.52 677.36,133.20" speed="5.56"/>
   </edge>
   <edge function="internal" id=":1310067444_0">
      <lane allow="delivery bicycle pedestrian" id=":1310067444_0_0" index="0" length="4.82" shape="684.87,180.45 684.68,181.93 684.13,182.66 683.21,182.66 681.92,181.92" speed="5.56"/>
   </edge>
   <edge function="internal" id=":1310067450_0">
      <lane disallow="tram rail_urban rail rail_electric ship" id=":1310067450_0_0" index="0" length="6.45" shape="726.15,169.45 724.60,163.19" speed="5.56"/>
   </edge>
   <edge function="internal" id=":1310067450_1">
      <lane disallow="tram rail_urban rail rail_electric ship" id=":1310067450_1_0" index="0" length="4.82" shape="726.15,169.45 726.30,167.97 726.83,167.22 727.76,167.20 729.07,167.91" speed="5.56"/>
   </edge>
   <edge function="internal" id=":1310067450_2">
      <lane disallow="tram rail_urban rail rail_electric ship" id=":1310067450_2_0" index="0" length="6.40" shape="721.95,168.19 723.69,167.02 724.70,165.80 725.01,164.52 724.60,163.19" speed="5.56"/>
   </edge>
   <edge function="internal" id=":1310067450_3">
      <lane disallow="tram rail_urban rail rail_electric ship" id=":1310067450_3_0" index="0" length="7.88" shape="721.95,168.19 724.51,167.02 726.55,166.58 728.06,166.88 729.07,167.91" speed="5.56"/>
   </edge>
   <edge function="internal" id=":1338455563_0">
      <lane disallow="tram rail_urban rail rail_electric ship" id=":1338455563_0_0" index="0" length="0.10" shape="827.91,217.88 827.93,217.92" speed="13.89"/>
      <lane disallow="tram rail_urban rail rail_electric ship" id=":1338455563_0_1" index="1" length="0.10" shape="830.82,216.33 830.81,216.31" speed="13.89"/>
   </edge>
   <edge function="internal" id=":1501721898_0">
      <lane allow="delivery bicycle pedestrian" id=":1501721898_0_0" index="0" length="0.10" shape="733.86,102.00 733.86,102.01" speed="5.56"/>
   </edge>
   <edge function="internal" id=":1501721898_1">
      <lane allow="delivery bicycle pedestrian" id=":1501721898_1_0" index="0" length="2.41" shape="733.86,102.00 734.03,100.52 734.57,99.78" speed="5.56"/>
   </edge>
   <edge function="internal" id=":1501721898_4">
      <lane id=":1501721898_4_0" index="0" length="2.41" shape="734.57,99.78 735.49,99.77 736.79,100.49" speed="5.56"/>
   </edge>
   <edge function="internal" id=":1501721898_2">
      <lane allow="delivery bicycle pedestrian" id=":1501721898_2_0" index="0" length="0.10" shape="736.79,100.49 736.79,100.49" speed="5.56"/>
   </edge>
   <edge function="internal" id=":1501721898_3">
      <lane allow="delivery bicycle pedestrian" id=":1501721898_3_0" index="0" length="2.41" shape="736.79,100.49 736.63,101.97 736.09,102.72" speed="5.56"/>
   </edge>
   <edge function="internal" id=":1501721898_5">
      <lane id=":1501721898_5_0" index="0" length="2.41" shape="736.09,102.72 735.16,102.73 733.86,102.01" speed="5.56"/>
   </edge>
   <edge function="internal" id=":1516305737_0">
      <lane disallow="tram rail_urban rail rail_electric ship" id=":1516305737_0_0" index="0" length="3.02" shape="707.83,15.85 705.14,15.39" speed="13.89"/>
      <lane disallow="tram rail_urban rail rail_electric ship" id=":1516305737_0_1" index="1" length="3.02" shape="707.83,15.85 707.44,13.02" speed="13.89"/>
      <lane disallow="tram rail_urban rail rail_electric ship" id=":1516305737_0_2" index="2" length="3.02" shape="710.34,13.71 709.74,10.66" speed="13.89"/>
      <lane disallow="tram rail_urban rail rail_electric ship" id=":1516305737_0_3" index="3" length="3.02" shape="712.85,11.57 712.04,8.29" speed="13.89"/>
   </edge>
   <edge function="internal" id=":1516305765_0">
      <lane disallow="tram rail_urban rail rail_electric ship" id=":1516305765_0_0" index="0" length="0.10" shape="708.14,101.68 708.13,101.68" speed="13.89"/>
   </edge>
   <edge function="internal" id=":1516305765_1">
      <lane disallow="tram rail_urban rail rail_electric ship" id=":1516305765_1_0" index="0" length="2.41" shape="708.14,101.68 706.65,101.64 705.87,101.16" speed="13.89"/>
   </edge>
   <edge function="internal" id=":1516305765_4">
      <lane id=":1516305765_4_0" index="0" length="2.41" shape="705.87,101.16 705.77,100.24 706.38,98.89" speed="13.89"/>
   </edge>
   <edge function="internal" id=":1516305765_2">
      <lane disallow="tram rail_urban rail rail_electric ship" id=":1516305765_2_0" index="0" length="0.10" shape="706.40,98.88 706.38,98.89" speed="13.89"/>
   </edge>
   <edge function="internal" id=":1516305765_3">
      <lane disallow="tram rail_urban rail rail_electric ship" id=":1516305765_3_0" index="0" length="2.41" shape="706.40,98.88 707.88,98.93 708.67,99.41" speed="13.89"/>
   </edge>
   <edge function="internal" id=":1516305765_5">
      <lane id=":1516305765_5_0" index="0" length="2.41" shape="708.67,99.41 708.75,100.33 708.13,101.68" speed="13.89"/>
   </edge>
   <edge function="internal" id=":1516305782_0">
      <lane allow="delivery bicycle pedestrian" id=":1516305782_0_0" index="0" length="0.45" shape="813.84,287.70 813.39,287.70" speed="5.56"/>
   </edge>
   <edge function="internal" id=":1550380576_0">
      <lane disallow="tram rail_urban rail rail_electric ship" id=":1550380576_0_0" index="0" length="0.10" shape="183.99,411.44 183.99,411.44" speed="5.56"/>
   </edge>
   <edge function="internal" id=":1550380580_0">
      <lane disallow="tram rail_urban rail rail_electric ship" id=":1550380580_0_0" index="0" length="0.10" shape="187.34,430.66 187.34,430.66" speed="5.56"/>
   </edge>
   <edge function="internal" id=":1550380597_0">
      <lane disallow="tram rail_urban rail rail_electric ship" id=":1550380597_0_0" index="0" length="0.10" shape="152.13,547.92 152.13,547.92" speed="13.89"/>
   </edge>
   <edge function="internal" id=":1550380597_1">
      <lane disallow="tram rail_urban rail rail_electric ship" id=":1550380597_1_0" index="0" length="2.41" shape="152.13,547.92 150.72,547.42 150.12,546.72" speed="13.89"/>
   </edge>
   <edge function="internal" id=":1550380597_4">
      <lane id=":1550380597_4_0" index="0" length="2.41" shape="150.12,546.72 150.32,545.82 151.32,544.72" speed="13.89"/>
   </edge>
   <edge function="internal" id=":1550380597_2">
      <lane disallow="tram rail_urban rail rail_electric ship" id=":1550380597_2_0" index="0" length="0.10" shape="151.32,544.72 151.32,544.72" speed="13.89"/>
   </edge>
   <edge function="internal" id=":1550380597_3">
      <lane disallow="tram rail_urban rail rail_electric ship" id=":1550380597_3_0" index="0" length="2.41" shape="151.32,544.72 152.72,545.22 153.32,545.91" speed="13.89"/>
   </edge>
   <edge function="internal" id=":1550380597_5">
      <lane id=":1550380597_5_0" index="0" length="2.41" shape="153.32,545.91 153.12,546.82 152.13,547.92" speed="13.89"/>
   </edge>
   <edge function="internal" id=":1550483713_0">
      <lane disallow="tram rail_urban rail rail_electric ship" id=":1550483713_0_0" index="0" length="0.20" shape="803.82,308.05 803.68,308.20" speed="8.33"/>
   </edge>
   <edge function="internal" id=":1595905815_0">
      <lane disallow="tram rail_urban rail rail_electric ship" id=":1595905815_0_0" index="0" length="0.10" shape="234.27,424.43 234.29,424.43" speed="5.56"/>
   </edge>
   <edge function="internal" id=":1595905816_0">
      <lane disallow="tram rail_urban rail rail_electric ship" id=":1595905816_0_0" index="0" length="0.10" shape="258.63,521.00 258.63,521.00" speed="13.89"/>
   </edge>
   <edge function="internal" id=":1595905816_1">
      <lane disallow="tram rail_urban rail rail_electric ship" id=":1595905816_1_0" index="0" length="2.41" shape="258.63,521.00 257.23,520.50 256.62,519.80" speed="13.89"/>
   </edge>
   <edge function="internal" id=":1595905816_4">
      <lane id=":1595905816_4_0" index="0" length="2.41" shape="256.62,519.80 256.82,518.90 257.82,517.80" speed="13.89"/>
   </edge>
   <edge function="internal" id=":1595905816_2">
      <lane disallow="tram rail_urban rail rail_electric ship" id=":1595905816_2_0" index="0" length="0.10" shape="257.82,517.80 257.82,517.80" speed="13.89"/>
   </edge>
   <edge function="internal" id=":1595905816_3">
      <lane disallow="tram rail_urban rail rail_electric ship" id=":1595905816_3_0" index="0" length="2.41" shape="257.82,517.80 259.22,518.29 259.82,518.99" speed="13.89"/>
   </edge>
   <edge function="internal" id=":1595905816_5">
      <lane id=":1595905816_5_0" index="0" length="2.41" shape="259.82,518.99 259.63,519.89 258.63,521.00" speed="13.89"/>
   </edge>
   <edge function="internal" id=":1617684456_0">
      <lane allow="delivery bicycle pedestrian" id=":1617684456_0_0" index="0" length="4.82" shape="271.29,317.78 270.60,319.09 269.83,319.59 268.96,319.27 268.01,318.12" speed="5.56"/>
   </edge>
   <edge function="internal" id=":16574619_0">
      <lane disallow="tram rail_urban rail rail_electric ship" id=":16574619_0_0" index="0" length="5.00" shape="567.28,44.77 562.29,44.97" speed="13.89"/>
      <lane disallow="tram rail_urban rail rail_electric ship" id=":16574619_0_1" index="1" length="5.00" shape="567.09,41.48 562.09,41.68" speed="13.89"/>
   </edge>
   <edge function="internal" id=":16574619_2">
      <lane disallow="tram rail_urban rail rail_electric ship" id=":16574619_2_0" index="0" length="8.98" shape="566.27,37.61 562.29,44.97" speed="13.89"/>
      <lane disallow="tram rail_urban rail rail_electric ship" id=":16574619_2_1" index="1" length="8.98" shape="565.19,34.31 562.48,37.62 561.06,39.94 560.93,41.30 562.09,41.68" speed="13.89"/>
   </edge>
   <edge function="internal" id=":1701467883_0">