<?xml version="1.0" encoding="utf-8"?><!-- generated on 10/11/17 17:51:04 by SUMO netconvert Version 0.25.0
<?xml version="1.0" encoding="UTF-8"?>

<configuration xmlns:xsi="http://www.w3.org/2001/XMLSchema-instance" xsi:noNamespaceSchemaLocation="http://sumo.dlr.de/xsd/netconvertConfiguration.xsd">

    <input>
        <type-files value="osmNetconvert.typ.xml"/>
        <osm-files value="DD_Gorbitz_urban_800.osm"/>
    </input>

    <output>
        <output-file value="DD_Gorbitz_urban_800.net.xml"/>
    </output>

    <projection>
        <proj.utm value="true"/>
    </projection>

    <edge_removal>
        <remove-edges.by-type value="highway.track,highway.unsurfaced,highway.raceway,highway.bridleway,highway.path,highway.footway,highway.pedestrian,highway.cycleway,highway.step,highway.steps,highway.stairs,highway.bus_guideway,highway.ford,railway.rail,railway.tram,railway.light_rail,railway.subway,railway.preserved,railway.narrow_gauge,railway.monorail,railway.funicular"/>
    </edge_removal>

</configuration>
-->
<net version="0.25">
   <location convBoundary="0.00,0.00,848.31,759.48" netOffset="-406559.72,-5655384.04" origBoundary="13.667102,51.042501,13.679098,51.049294" projParameter="+proj=utm +zone=33 +ellps=WGS84 +datum=WGS84 +units=m +no_defs"/>
   <type allow="pedestrian" id="highway.bridleway" numLanes="1" oneway="1" priority="1" speed="2.78" width="2.00"/>
   <type allow="bus" id="highway.bus_guideway" numLanes="1" oneway="1" priority="1" speed="8.33"/>
   <type allow="bicycle" id="highway.cycleway" numLanes="1" oneway="0" priority="1" speed="5.56" width="1.00"/>
   <type allow="pedestrian" id="highway.footway" numLanes="1" oneway="1" priority="1" speed="8.33" width="2.00"/>
   <type allow="army" id="highway.ford" numLanes="1" oneway="0" priority="1" speed="2.78"/>
   <type disallow="tram rail_urban rail rail_electric ship" id="highway.living_street" numLanes="1" oneway="0" priority="3" speed="2.78"/>
   <type allow="private emergency authority army vip passenger hov taxi bus coach delivery truck trailer motorcycle evehicle custom1 custom2" id="highway.motorway" numLanes="2" oneway="1" priority="13" speed="44.44"/>
   <type allow="private emergency authority army vip passenger hov taxi bus coach delivery truck trailer motorcycle evehicle custom1 custom2" id="highway.motorway_link" numLanes="1" oneway="1" priority="12" speed="22.22"/>
   <type allow="bicycle pedestrian" id="highway.path" numLanes="1" oneway="1" priority="1" speed="2.78" width="2.00"/>
   <type allow="pedestrian" id="highway.pedestrian" numLanes="1" oneway="1" priority="1" speed="8.33" width="2.00"/>
   <type disallow="tram rail_urban rail rail_electric ship" id="highway.primary" numLanes="2" oneway="0" priority="9" speed="27.78"/>
   <type disallow="tram rail_urban rail rail_electric ship" id="highway.primary_link" numLanes="1" oneway="0" priority="8" speed="22.22"/>
   <type allow="vip" id="highway.raceway" numLanes="2" oneway="0" priority="14" speed="83.33"/>
   <type disallow="tram rail_urban rail rail_electric ship" id="highway.residential" numLanes="1" oneway="0" priority="4" speed="13.89"/>
   <type disallow="tram rail_urban rail rail_electric ship" id="highway.secondary" numLanes="2" oneway="0" priority="7" speed="27.78"/>
   <type disallow="tram rail_urban rail rail_electric ship" id="highway.secondary_link" numLanes="1" oneway="0" priority="6" speed="22.22"/>
   <type allow="delivery bicycle pedestrian" id="highway.service" numLanes="1" oneway="0" priority="2" speed="5.56"/>
   <type disallow="tram rail_urban rail rail_electric ship" id="highway.services" numLanes="1" oneway="0" priority="1" speed="8.33"/>
   <type allow="pedestrian" id="highway.stairs" numLanes="1" oneway="1" priority="1" speed="1.39" width="2.00"/>
   <type allow="pedestrian" id="highway.step" numLanes="1" oneway="1" priority="1" speed="1.39" width="2.00"/>
   <type allow="pedestrian" id="highway.steps" numLanes="1" oneway="1" priority="1" speed="1.39" width="2.00"/>
   <type disallow="tram rail_urban rail rail_electric ship" id="highway.tertiary" numLanes="1" oneway="0" priority="6" speed="22.22"/>
   <type disallow="tram rail_urban rail rail_electric ship" id="highway.tertiary_link" numLanes="1" oneway="0" priority="5" speed="22.22"/>
   <type disallow="tram rail_urban rail rail_electric ship" id="highway.track" numLanes="1" oneway="0" priority="1" speed="5.56"/>
   <type disallow="tram rail_urban rail rail_electric bicycle pedestrian ship" id="highway.trunk" numLanes="2" oneway="0" priority="11" speed="27.78"/>
   <type disallow="tram rail_urban rail rail_electric bicycle pedestrian ship" id="highway.trunk_link" numLanes="1" oneway="0" priority="10" speed="22.22"/>
   <type disallow="tram rail_urban rail rail_electric ship" id="highway.unclassified" numLanes="1" oneway="0" priority="5" speed="13.89"/>
   <type disallow="tram rail_urban rail rail_electric ship" id="highway.unsurfaced" numLanes="1" oneway="0" priority="1" speed="8.33"/>
   <type allow="rail_urban" id="railway.light_rail" numLanes="1" oneway="1" priority="15" speed="27.78"/>
   <type allow="rail" id="railway.preserved" numLanes="1" oneway="1" priority="15" speed="27.78"/>
   <type allow="rail rail_electric" id="railway.rail" numLanes="1" oneway="1" priority="15" speed="83.33"/>
   <type allow="rail_urban" id="railway.subway" numLanes="1" oneway="1" priority="15" speed="27.78"/>
   <type allow="tram" id="railway.tram" numLanes="1" oneway="1" priority="15" speed="13.89"/>
   <edge function="internal" id=":1010778353_0">
      <lane disallow="tram rail_urban rail rail_electric ship" id=":1010778353_0_0" index="0" length="9.39" shape="747.06,54.16 744.62,45.09" speed="8.33"/>
   </edge>
   <edge function="internal" id=":1010778353_1">
      <lane allow="delivery bicycle pedestrian" id=":1010778353_1_0" index="0" length="4.92" shape="747.06,54.16 746.83,51.57 747.53,49.36" speed="6.95"/>
   </edge>
   <edge function="internal" id=":1010778353_2">
      <lane disallow="tram rail_urban rail rail_electric ship" id=":1010778353_2_0" index="0" length="2.41" shape="747.06,54.16 747.56,52.76 748.26,52.16" speed="8.33"/>
   </edge>
   <edge function="internal" id=":1010778353_9">
      <lane id=":1010778353_9_0" index="0" length="5.39" shape="747.53,49.36 749.17,47.54 751.74,46.10" speed="6.95"/>
   </edge>
   <edge function="internal" id=":1010778353_10">
      <lane id=":1010778353_10_0" index="0" length="2.41" shape="748.26,52.16 749.16,52.36 750.26,53.36" speed="8.33"/>
   </edge>
   <edge function="internal" id=":1010778353_3">
      <lane disallow="tram rail_urban rail rail_electric ship" id=":1010778353_3_0" index="0" length="5.53" shape="752.99,49.15 751.53,49.94 750.59,50.91 750.17,52.04 750.26,53.36" speed="6.95"/>
   </edge>
   <edge function="internal" id=":1010778353_4">
      <lane disallow="tram rail_urban rail rail_electric ship" id=":1010778353_4_0" index="0" length="10.90" shape="752.99,49.15 750.04,49.89 747.67,49.46 745.86,47.86 744.62,45.09" speed="6.95"/>
   </edge>
   <edge function="internal" id=":1010778353_5">
      <lane allow="delivery bicycle pedestrian" id=":1010778353_5_0" index="0" length="4.82" shape="752.99,49.15 751.53,48.86 750.84,48.25 750.90,47.33 751.74,46.10" speed="5.56"/>
   </edge>
   <edge function="internal" id=":1010778353_6">
      <lane allow="delivery bicycle pedestrian" id=":1010778353_6_0" index="0" length="5.14" shape="747.79,44.18 748.38,45.49 749.23,46.24 750.35,46.45 751.74,46.10" speed="6.95"/>
   </edge>
   <edge function="internal" id=":1010778353_7">
      <lane disallow="tram rail_urban rail rail_electric ship" id=":1010778353_7_0" index="0" length="9.50" shape="747.79,44.18 750.26,53.36" speed="8.33"/>
   </edge>
   <edge function="internal" id=":1010778353_8">
      <lane disallow="tram rail_urban rail rail_electric ship" id=":1010778353_8_0" index="0" length="2.41" shape="747.79,44.18 747.34,45.60 746.66,46.22" speed="8.33"/>
   </edge>
   <edge function="internal" id=":1010778353_11">
      <lane id=":1010778353_11_0" index="0" length="2.41" shape="746.66,46.22 745.75,46.05 744.62,45.09" speed="8.33"/>
   </edge>
   <edge function="internal" id=":1010778356_0">
      <lane allow="delivery bicycle pedestrian" id=":1010778356_0_0" index="0" length="3.53" shape="741.23,33.19 740.81,31.71 740.52,30.65 740.35,30.01 740.32,29.78" speed="6.95"/>
   </edge>
   <edge function="internal" id=":1010778356_1">
      <lane disallow="tram rail_urban rail rail_electric ship" id=":1010778356_1_0" index="0" length="10.66" shape="741.23,33.19 740.39,30.24 739.77,28.07 739.15,25.90 738.31,22.94" speed="8.33"/>
   </edge>
   <edge function="internal" id=":1010778356_2">
      <lane allow="delivery bicycle pedestrian" id=":1010778356_2_0" index="0" length="5.80" shape="741.23,33.19 740.76,30.06 741.30,27.48" speed="6.95"/>
   </edge>
   <edge function="internal" id=":1010778356_3">
      <lane disallow="tram rail_urban rail rail_electric ship" id=":1010778356_3_0" index="0" length="2.41" shape="741.23,33.19 741.68,31.78 742.36,31.15" speed="8.33"/>
   </edge>
   <edge function="internal" id=":1010778356_16">
      <lane id=":1010778356_16_0" index="0" length="5.50" shape="741.30,27.48 742.85,25.46 745.41,23.99" speed="6.95"/>
   </edge>
   <edge function="internal" id=":1010778356_17">
      <lane id=":1010778356_17_0" index="0" length="2.41" shape="742.36,31.15 743.27,31.33 744.40,32.29" speed="8.33"/>
   </edge>
   <edge function="internal" id=":1010778356_4">
      <lane disallow="tram rail_urban rail rail_electric ship" id=":1010778356_4_0" index="0" length="6.33" shape="746.60,27.07 745.22,27.88 744.39,29.02 744.12,30.49 744.40,32.29" speed="6.95"/>
   </edge>
   <edge function="internal" id=":1010778356_5">
      <lane allow="delivery bicycle pedestrian" id=":1010778356_5_0" index="0" length="6.85" shape="746.60,27.07 740.32,29.78" speed="5.56"/>
   </edge>
   <edge function="internal" id=":1010778356_6">
      <lane disallow="tram rail_urban rail rail_electric ship" id=":1010778356_6_0" index="0" length="10.80" shape="746.60,27.07 743.68,27.74 741.32,27.28 739.53,25.68 738.31,22.94" speed="6.95"/>
   </edge>
   <edge function="internal" id=":1010778356_7">
      <lane allow="delivery bicycle pedestrian" id=":1010778356_7_0" index="0" length="4.82" shape="746.60,27.07 745.15,26.75 744.47,26.13 744.55,25.21 745.41,23.99" speed="5.56"/>
   </edge>
   <edge function="internal" id=":1010778356_8">
      <lane allow="delivery bicycle pedestrian" id=":1010778356_8_0" index="0" length="5.11" shape="741.48,22.04 742.06,23.33 742.91,24.09 744.02,24.31 745.41,23.99" speed="6.95"/>
   </edge>
   <edge function="internal" id=":1010778356_9">
      <lane disallow="tram rail_urban rail rail_electric ship" id=":1010778356_9_0" index="0" length="10.66" shape="741.48,22.04 742.32,24.99 742.94,27.16 743.56,29.34 744.40,32.29" speed="8.33"/>
   </edge>
   <edge function="internal" id=":1010778356_10">
      <lane allow="delivery bicycle pedestrian" id=":1010778356_10_0" index="0" length="6.60" shape="741.48,22.04 742.06,24.82 742.06,27.04 741.55,28.49" speed="6.95"/>
   </edge>
   <edge function="internal" id=":1010778356_11">
      <lane disallow="tram rail_urban rail rail_electric ship" id=":1010778356_11_0" index="0" length="2.41" shape="741.48,22.04 741.03,23.45 740.35,24.08" speed="8.33"/>
   </edge>
   <edge function="internal" id=":1010778356_18">
      <lane id=":1010778356_18_0" index="0" length="1.81" shape="741.55,28.49 741.48,28.69 740.32,29.78" speed="6.95"/>
   </edge>
   <edge function="internal" id=":1010778356_19">
      <lane id=":1010778356_19_0" index="0" length="2.41" shape="740.35,24.08 739.44,23.91 738.31,22.94" speed="8.33"/>
   </edge>
   <edge function="internal" id=":1010778356_12">
      <lane disallow="tram rail_urban rail rail_electric ship" id=":1010778356_12_0" index="0" length="5.54" shape="736.98,27.86 737.94,27.06 738.49,25.98 738.61,24.60 738.31,22.94" speed="6.95"/>
   </edge>
   <edge function="internal" id=":1010778356_13">
      <lane allow="delivery bicycle pedestrian" id=":1010778356_13_0" index="0" length="9.28" shape="736.98,27.86 745.41,23.99" speed="5.56"/>
   </edge>
   <edge function="internal" id=":1010778356_14">
      <lane disallow="tram rail_urban rail rail_electric ship" id=":1010778356_14_0" index="0" length="10.41" shape="736.98,27.86 739.44,27.03 741.49,27.49 743.15,29.25 744.40,32.29" speed="6.95"/>
   </edge>
   <edge function="internal" id=":1010778356_15">
      <lane allow="delivery bicycle pedestrian" id=":1010778356_15_0" index="0" length="5.63" shape="736.98,27.86 738.53,27.09 739.61,27.15 740.20,28.05 740.32,29.78" speed="5.56"/>
   </edge>
   <edge function="internal" id=":1014840221_0">
      <lane allow="delivery bicycle pedestrian" id=":1014840221_0_0" index="0" length="1.05" shape="610.94,207.04 610.42,206.12" speed="5.56"/>
   </edge>
   <edge function="internal" id=":1014840221_1">
      <lane allow="delivery bicycle pedestrian" id=":1014840221_1_0" index="0" length="1.82" shape="610.94,207.04 611.54,205.68 611.80,205.48" speed="5.56"/>
   </edge>
   <edge function="internal" id=":1014840221_4">
      <lane id=":1014840221_4_0" index="0" length="3.00" shape="611.80,205.48 612.28,205.13 613.16,205.39 614.19,206.47" speed="5.56"/>
   </edge>
   <edge function="internal" id=":1014840221_2">
      <lane allow="delivery bicycle pedestrian" id=":1014840221_2_0" index="0" length="3.23" shape="612.61,203.65 614.19,206.47" speed="5.56"/>
   </edge>
   <edge function="internal" id=":1014840221_3">
      <lane allow="delivery bicycle pedestrian" id=":1014840221_3_0" index="0" length="2.92" shape="612.61,203.65 612.99,205.09 612.75,205.98 612.28,206.17" speed="5.56"/>
   </edge>
   <edge function="internal" id=":1014840221_5">
      <lane id=":1014840221_5_0" index="0" length="1.90" shape="612.28,206.17 611.90,206.32 610.42,206.12" speed="5.56"/>
   </edge>
   <edge function="internal" id=":114344279_0">
      <lane disallow="tram rail_urban rail rail_electric ship" id=":114344279_0_0" index="0" length="5.01" shape="29.48,475.34 28.13,475.09 27.03,475.32 26.17,476.06 25.55,477.29" speed="8.33"/>
   </edge>
   <edge function="internal" id=":114344279_1">
      <lane disallow="tram rail_urban rail rail_electric ship" id=":114344279_1_0" index="0" length="6.74" shape="29.48,475.34 23.12,473.10" speed="8.33"/>
   </edge>
   <edge function="internal" id=":114344279_2">
      <lane disallow="tram rail_urban rail rail_electric ship" id=":114344279_2_0" index="0" length="4.82" shape="29.48,475.34 28.58,474.16 28.46,473.25 29.12,472.60 30.55,472.22" speed="8.33"/>
   </edge>
   <edge function="internal" id=":114344279_3">
      <lane disallow="tram rail_urban rail rail_electric ship" id=":114344279_3_0" index="0" length="9.17" shape="21.92,469.13 30.55,472.22" speed="8.33"/>
   </edge>
   <edge function="internal" id=":114344279_4">
      <lane disallow="tram rail_urban rail rail_electric ship" id=":114344279_4_0" index="0" length="10.10" shape="21.92,469.13 24.26,470.43 25.65,472.23 26.08,474.51 25.55,477.29" speed="8.33"/>
   </edge>
   <edge function="internal" id=":114344279_5">
      <lane disallow="tram rail_urban rail rail_electric ship" id=":114344279_5_0" index="0" length="6.06" shape="21.92,469.13 23.71,469.68 24.51,470.52 24.31,471.66 23.12,473.10" speed="8.33"/>
   </edge>
   <edge function="internal" id=":114344279_6">
      <lane disallow="tram rail_urban rail rail_electric ship" id=":114344279_6_0" index="0" length="3.27" shape="22.42,476.26 22.84,474.92 23.10,473.95 23.19,473.34 23.12,473.10" speed="8.33"/>
   </edge>
   <edge function="internal" id=":114344279_7">
      <lane disallow="tram rail_urban rail rail_electric ship" id=":114344279_7_0" index="0" length="10.38" shape="22.42,476.26 23.69,473.71 25.47,472.18 27.75,471.69 30.55,472.22" speed="8.33"/>
   </edge>
   <edge function="internal" id=":114344279_8">
      <lane disallow="tram rail_urban rail rail_electric ship" id=":114344279_8_0" index="0" length="4.82" shape="22.42,476.26 23.59,475.34 24.50,475.21 25.16,475.86 25.55,477.29" speed="8.33"/>
   </edge>
   <edge function="internal" id=":114344333_0">
      <lane disallow="tram rail_urban rail rail_electric ship" id=":114344333_0_0" index="0" length="3.20" shape="637.27,92.03 636.90,91.96 636.34,92.19 635.57,92.73 634.61,93.56" speed="6.95"/>
   </edge>
   <edge function="internal" id=":114344333_1">
      <lane disallow="tram rail_urban rail rail_electric ship" id=":114344333_1_0" index="0" length="7.71" shape="637.27,92.03 636.25,90.76 635.90,89.15 636.21,87.21 637.19,84.94" speed="6.95"/>
   </edge>
   <edge function="internal" id=":114344333_2">
      <lane allow="delivery bicycle pedestrian" id=":114344333_2_0" index="0" length="5.79" shape="637.27,92.03 637.79,90.32 638.59,89.56 639.69,89.75 641.07,90.88" speed="5.56"/>
   </edge>
   <edge function="internal" id=":114344333_3">
      <lane allow="delivery bicycle pedestrian" id=":114344333_3_0" index="0" length="4.92" shape="640.09,86.50 639.65,87.71 639.67,88.84 640.14,89.90 641.07,90.88" speed="6.95"/>
   </edge>
   <edge function="internal" id=":114344333_4">
      <lane disallow="tram rail_urban rail rail_electric ship" id=":114344333_4_0" index="0" length="8.94" shape="640.09,86.50 634.61,93.56" speed="8.33"/>
   </edge>
   <edge function="internal" id=":114344333_5">
      <lane disallow="tram rail_urban rail rail_electric ship" id=":114344333_5_0" index="0" length="2.73" shape="640.09,86.50 638.78,87.20 637.86,87.18 637.68,86.92" speed="8.33"/>
   </edge>
   <edge function="internal" id=":114344333_9">
      <lane id=":114344333_9_0" index="0" length="2.09" shape="637.68,86.92 637.33,86.42 637.19,84.94" speed="8.33"/>
   </edge>
   <edge function="internal" id=":114344333_6">
      <lane disallow="tram rail_urban rail rail_electric ship" id=":114344333_6_0" index="0" length="7.86" shape="632.36,91.15 637.19,84.94" speed="8.33"/>
   </edge>
   <edge function="internal" id=":114344333_7">
      <lane allow="delivery bicycle pedestrian" id=":114344333_7_0" index="0" length="4.05" shape="632.36,91.15 634.49,89.65 635.89,89.30" speed="6.95"/>
   </edge>
   <edge function="internal" id=":114344333_8">
      <lane disallow="tram rail_urban rail rail_electric ship" id=":114344333_8_0" index="0" length="2.16" shape="632.36,91.15 633.83,90.91 634.46,91.15" speed="8.33"/>
   </edge>
   <edge function="internal" id=":114344333_10">
      <lane id=":114344333_10_0" index="0" length="5.62" shape="635.89,89.30 636.66,89.11 638.85,89.52 641.07,90.88" speed="6.95"/>
   </edge>
   <edge function="internal" id=":114344333_11">
      <lane id=":114344333_11_0" index="0" length="2.66" shape="634.46,91.15 634.69,91.23 634.95,92.12 634.61,93.56" speed="8.33"/>
   </edge>
   <edge function="internal" id=":114344356_0">
      <lane disallow="tram rail_urban rail rail_electric ship" id=":114344356_0_0" index="0" length="12.60" shape="541.47,211.95 539.31,214.53 537.07,216.40 534.51,217.81 531.35,219.05" speed="8.33"/>
   </edge>
   <edge function="internal" id=":114344356_1">
      <lane allow="delivery bicycle pedestrian" id=":114344356_1_0" index="0" length="5.98" shape="541.47,211.95 539.19,214.19 536.73,214.90 536.52,214.84" speed="6.95"/>
   </edge>
   <edge function="internal" id=":114344356_2">
      <lane disallow="tram rail_urban rail rail_electric ship" id=":114344356_2_0" index="0" length="2.54" shape="541.47,211.95 540.08,212.46 539.17,212.31 539.11,212.19" speed="8.33"/>
   </edge>
   <edge function="internal" id=":114344356_9">
      <lane id=":114344356_9_0" index="0" length="6.17" shape="536.52,214.84 534.11,214.09 531.32,211.74" speed="6.95"/>
   </edge>
   <edge function="internal" id=":114344356_10">
      <lane id=":114344356_10_0" index="0" length="2.28" shape="539.11,212.19 538.74,211.49 538.81,210.00" speed="8.33"/>
   </edge>
   <edge function="internal" id=":114344356_3">
      <lane disallow="tram rail_urban rail rail_electric ship" id=":114344356_3_0" index="0" length="6.05" shape="533.75,209.50 535.20,210.76 536.53,211.26 537.73,211.01 538.81,210.00" speed="6.95"/>
   </edge>
   <edge function="internal" id=":114344356_4">
      <lane disallow="tram rail_urban rail rail_electric ship" id=":114344356_4_0" index="0" length="12.76" shape="533.75,209.50 535.88,212.57 536.20,215.19 534.68,217.35 531.35,219.05" speed="6.95"/>
   </edge>
   <edge function="internal" id=":114344356_5">
      <lane allow="delivery bicycle pedestrian" id=":114344356_5_0" index="0" length="4.82" shape="533.75,209.50 533.98,210.97 533.65,211.83 532.77,212.09 531.32,211.74" speed="5.56"/>
   </edge>
   <edge function="internal" id=":114344356_6">
      <lane allow="delivery bicycle pedestrian" id=":114344356_6_0" index="0" length="5.60" shape="530.27,215.93 531.73,215.18 532.40,214.23 532.26,213.09 531.32,211.74" speed="6.95"/>
   </edge>
   <edge function="internal" id=":114344356_7">
      <lane disallow="tram rail_urban rail rail_electric ship" id=":114344356_7_0" index="0" length="10.66" shape="530.27,215.93 533.18,214.88 535.20,213.86 536.89,212.40 538.81,210.00" speed="8.33"/>
   </edge>
   <edge function="internal" id=":114344356_8">
      <lane disallow="tram rail_urban rail rail_electric ship" id=":114344356_8_0" index="0" length="2.41" shape="530.27,215.93 531.71,216.30 532.37,216.95" speed="8.33"/>
   </edge>
   <edge function="internal" id=":114344356_11">
      <lane id=":114344356_11_0" index="0" length="2.41" shape="532.37,216.95 532.25,217.86 531.35,219.05" speed="8.33"/>
   </edge>
   <edge function="internal" id=":114344360_0">
      <lane allow="delivery bicycle pedestrian" id=":114344360_0_0" index="0" length="4.82" shape="486.86,205.48 487.11,204.01 487.69,203.29 488.61,203.33 489.87,204.12" speed="8.33"/>
   </edge>
   <edge function="internal" id=":114344410_0">
      <lane allow="delivery bicycle pedestrian" id=":114344410_0_0" index="0" length="6.56" shape="428.57,78.97 426.58,78.11 424.94,77.87 423.64,78.25 422.70,79.25" speed="5.56"/>
   </edge>
   <edge function="internal" id=":114344410_1">
      <lane allow="delivery bicycle pedestrian" id=":114344410_1_0" index="0" length="12.84" shape="428.57,78.97 425.53,76.73 424.39,74.35 425.15,71.82 427.82,69.14" speed="5.56"/>
   </edge>
   <edge function="internal" id=":114344410_2">
      <lane allow="delivery bicycle pedestrian" id=":114344410_2_0" index="0" length="4.82" shape="428.57,78.97 427.88,77.66 427.91,76.73 428.66,76.20 430.15,76.07" speed="5.56"/>
   </edge>
   <edge function="internal" id=":114344410_3">
      <lane allow="delivery bicycle pedestrian" id=":114344410_3_0" index="0" length="5.62" shape="429.81,71.77 428.65,72.94 428.31,74.05 428.81,75.09 430.15,76.07" speed="5.56"/>
   </edge>
   <edge function="internal" id=":114344410_4">
      <lane allow="delivery bicycle pedestrian" id=":114344410_4_0" index="0" length="10.44" shape="429.81,71.77 427.38,73.61 425.71,75.03 424.32,76.69 422.70,79.25" speed="5.56"/>
   </edge>
   <edge function="internal" id=":114344410_5">
      <lane allow="delivery bicycle pedestrian" id=":114344410_5_0" index="0" length="4.82" shape="429.81,71.77 428.33,71.86 427.50,71.45 427.33,70.55 427.82,69.14" speed="5.56"/>
   </edge>
   <edge function="internal" id=":114344410_6">
      <lane allow="delivery bicycle pedestrian" id=":114344410_6_0" index="0" length="11.72" shape="419.85,77.59 421.60,74.87 423.29,72.88 425.25,71.13 427.82,69.14" speed="5.56"/>
   </edge>
   <edge function="internal" id=":114344410_7">
      <lane allow="delivery bicycle pedestrian" id=":114344410_7_0" index="0" length="11.73" shape="419.85,77.59 421.68,75.47 424.00,74.51 426.82,74.71 430.15,76.07" speed="5.56"/>
   </edge>
   <edge function="internal" id=":114344410_8">
      <lane allow="delivery bicycle pedestrian" id=":114344410_8_0" index="0" length="4.82" shape="419.85,77.59 421.19,76.94 422.11,77.00 422.61,77.77 422.70,79.25" speed="5.56"/>
   </edge>
   <edge function="internal" id=":114344420_0">
      <lane disallow="tram rail_urban rail rail_electric ship" id=":114344420_0_0" index="0" length="4.60" shape="556.29,156.91 553.26,160.37" speed="8.33"/>
   </edge>
   <edge function="internal" id=":114344420_1">
      <lane allow="delivery bicycle pedestrian" id=":114344420_1_0" index="0" length="4.71" shape="556.29,156.91 554.04,158.90 552.41,159.41" speed="6.95"/>
   </edge>
   <edge function="internal" id=":114344420_2">
      <lane disallow="tram rail_urban rail rail_electric ship" id=":114344420_2_0" index="0" length="2.41" shape="556.29,156.91 554.86,157.32 553.97,157.10" speed="8.33"/>
   </edge>
   <edge function="internal" id=":114344420_9">
      <lane id=":114344420_9_0" index="0" length="6.10" shape="552.41,159.41 551.74,159.61 549.41,159.05 547.03,157.21" speed="6.95"/>
   </edge>
   <edge function="internal" id=":114344420_10">
      <lane id=":114344420_10_0" index="0" length="2.41" shape="553.97,157.10 553.61,156.25 553.78,154.77" speed="8.33"/>
   </edge>
   <edge function="internal" id=":114344420_3">
      <lane disallow="tram rail_urban rail rail_electric ship" id=":114344420_3_0" index="0" length="5.12" shape="549.40,154.92 550.52,155.79 551.63,156.05 552.71,155.71 553.78,154.77" speed="6.95"/>
   </edge>
   <edge function="internal" id=":114344420_4">
      <lane disallow="tram rail_urban rail rail_electric ship" id=":114344420_4_0" index="0" length="6.81" shape="549.40,154.92 551.25,156.92 552.52,158.50 553.18,159.65 553.26,160.37" speed="6.95"/>
   </edge>
   <edge function="internal" id=":114344420_5">
      <lane allow="delivery bicycle pedestrian" id=":114344420_5_0" index="0" length="4.82" shape="549.40,154.92 549.67,156.38 549.36,157.25 548.48,157.53 547.03,157.21" speed="5.56"/>
   </edge>
   <edge function="internal" id=":114344420_6">
      <lane allow="delivery bicycle pedestrian" id=":114344420_6_0" index="0" length="4.33" shape="549.53,160.66 549.47,160.22 549.03,159.50 548.22,158.50 547.03,157.21" speed="6.95"/>
   </edge>
   <edge function="internal" id=":114344420_7">
      <lane disallow="tram rail_urban rail rail_electric ship" id=":114344420_7_0" index="0" length="7.26" shape="549.53,160.66 553.78,154.77" speed="8.33"/>
   </edge>
   <edge function="internal" id=":114344420_8">
      <lane disallow="tram rail_urban rail rail_electric ship" id=":114344420_8_0" index="0" length="3.78" shape="549.53,160.66 550.35,159.19 551.25,158.65 552.22,159.05" speed="8.33"/>
   </edge>
   <edge function="internal" id=":114344420_11">
      <lane id=":114344420_11_0" index="0" length="1.69" shape="552.22,159.05 553.26,160.37" speed="8.33"/>
   </edge>
   <edge function="internal" id=":1150713149_0">
      <lane allow="delivery bicycle pedestrian" id=":1150713149_0_0" index="0" length="4.82" shape="672.41,674.60 672.41,676.08 671.94,676.88 671.03,676.99 669.66,676.41" speed="5.56"/>
   </edge>
   <edge function="internal" id=":1174681766_0">
      <lane disallow="tram rail_urban rail rail_electric ship" id=":1174681766_0_0" index="0" length="3.00" shape="841.33,260.29 840.91,263.26" speed="8.33"/>
   </edge>
   <edge function="internal" id=":1174681766_1">
      <lane disallow="tram rail_urban rail rail_electric ship" id=":1174681766_1_0" index="0" length="3.00" shape="841.33,260.29 840.91,263.26" speed="8.33"/>
   </edge>
   <edge function="internal" id=":1174681766_2">
      <lane disallow="tram rail_urban rail rail_electric ship" id=":1174681766_2_0" index="0" length="4.82" shape="841.33,260.29 840.34,261.40 839.47,261.69 838.71,261.16 838.07,259.82" speed="8.33"/>
   </edge>
   <edge function="internal" id=":1174681766_3">
      <lane disallow="tram rail_urban rail rail_electric ship" id=":1174681766_3_0" index="0" length="3.00" shape="837.64,262.79 838.07,259.82" speed="8.33"/>
   </edge>
   <edge function="internal" id=":1174681766_4">
      <lane disallow="tram rail_urban rail rail_electric ship" id=":1174681766_4_0" index="0" length="3.30" shape="837.64,262.79 840.91,263.26" speed="8.33"/>
   </edge>
   <edge function="internal" id=":1174681766_5">
      <lane disallow="tram rail_urban rail rail_electric ship" id=":1174681766_5_0" index="0" length="4.82" shape="837.64,262.79 838.64,261.68 839.51,261.39 840.27,261.91 840.91,263.26" speed="8.33"/>
   </edge>
   <edge function="internal" id=":1174681766_6">
      <lane disallow="tram rail_urban rail rail_electric ship" id=":1174681766_6_0" index="0" length="3.00" shape="837.64,262.79 838.07,259.82" speed="8.33"/>
   </edge>
   <edge function="internal" id=":1174681766_7">
      <lane disallow="tram rail_urban rail rail_electric ship" id=":1174681766_7_0" index="0" length="3.30" shape="837.64,262.79 840.91,263.26" speed="8.33"/>
   </edge>
   <edge function="internal" id=":1174681766_8">
      <lane disallow="tram rail_urban rail rail_electric ship" id=":1174681766_8_0" index="0" length="4.82" shape="837.64,262.79 838.64,261.68 839.51,261.39 840.27,261.91 840.91,263.26" speed="8.33"/>
   </edge>
   <edge function="internal" id=":1180893207_0">
      <lane disallow="tram rail_urban rail rail_electric ship" id=":1180893207_0_0" index="0" length="0.10" shape="649.98,68.43 650.00,68.39" speed="8.33"/>
   </edge>
   <edge function="internal" id=":1180893207_1">
      <lane disallow="tram rail_urban rail rail_electric ship" id=":1180893207_1_0" index="0" length="2.41" shape="649.98,68.43 648.64,69.08 647.72,69.01" speed="8.33"/>
   </edge>
   <edge function="internal" id=":1180893207_4">
      <lane id=":1180893207_4_0" index="0" length="2.41" shape="647.72,69.01 647.22,68.24 647.13,66.76" speed="8.33"/>
   </edge>
   <edge function="internal" id=":1180893207_2">
      <lane disallow="tram rail_urban rail rail_electric ship" id=":1180893207_2_0" index="0" length="0.10" shape="647.13,66.77 647.13,66.76" speed="8.33"/>
   </edge>
   <edge function="internal" id=":1180893207_3">