<?xml version="1.0" encoding="utf-8"?><!-- generated on 10/11/17 17:51:15 by SUMO polyconvert Version 0.25.0
<?xml version="1.0" encoding="UTF-8"?>

<configuration xmlns:xsi="http://www.w3.org/2001/XMLSchema-instance" xsi:noNamespaceSchemaLocation="http://sumo.dlr.de/xsd/polyconvertConfiguration.xsd">

    <input>
        <net-file value="DD_Gorbitz_urban_800.net.xml"/>
        <osm-files value="DD_Gorbitz_urban_800.osm"/>
        <type-file value="osmPolyconvert.typ.xml"/>
    </input>

    <output>
        <output-file value="DD_Gorbitz_urban_800.poly.xml"/>
    </output>

    <projection>
        <proj.utm value="true"/>
    </projection>

    <processing>
        <poi-layer-offset value="5"/>
    </processing>

</configuration>
-->
<additional>
   <location convBoundary="0.00,0.00,849.64,767.11" netOffset="-406559.72,-5655384.04" origBoundary="13.667102,51.042501,13.679098,51.049296" projParameter="+proj=utm +zone=33 +ellps=WGS84 +datum=WGS84 +units=m +no_defs"/>
   <poly color="red" fill="1" id="100816083" layer="-1.00" shape="686.03,364.84 684.94,372.50 683.74,381.01 698.58,383.08 699.16,378.95 697.90,378.78 698.19,376.71 699.44,376.89 700.84,366.91 686.03,364.84" type="building"/>
   <poly color="184,184,179" fill="1" id="103038672" layer="-1.00" shape="761.81,73.14 760.86,70.21 759.67,66.52 753.86,47.02 748.47,24.58 747.60,21.61 746.87,19.11 758.19,12.42 768.37,2.48 806.83,0.01 817.16,4.78 818.07,5.20 818.91,5.57 826.65,9.01 821.13,21.69 819.96,24.37 819.00,26.90 811.54,24.16 809.99,25.11 809.56,26.90 815.46,32.22 807.07,43.00 800.42,50.11 792.00,57.52 781.93,64.50 772.40,69.21 761.81,73.14" type="parking"/>
   <poly color="red" fill="1" id="111119807" layer="-1.00" shape="667.65,338.14 685.60,340.57 687.60,325.79 680.24,324.80 669.66,323.37 667.65,338.14" type="building"/>
   <poly color="red" fill="1" id="114442890" layer="-1.00" shape="781.74,582.93 774.31,581.41 760.44,578.56 746.19,575.65 731.90,572.71 717.54,569.78 703.43,566.89 689.29,563.99 682.53,562.60 680.22,573.84 779.42,594.17 780.05,591.14 781.74,582.93" type="building"/>
   <poly color="237,199,199" fill="1" id="114690879" layer="-1.00" shape="374.13,696.09 372.89,695.09 372.90,691.84 367.28,691.58 367.27,692.92 363.34,692.76 363.31,696.83 361.24,698.45 363.17,700.56 362.99,704.17 365.01,704.28 364.80,707.17 366.56,707.30 366.04,713.10 377.46,714.12 377.96,708.05 391.08,708.94 390.77,714.80 400.05,715.23 400.39,705.54 398.87,705.42 399.10,700.82 397.06,700.63 397.49,691.51 393.27,688.83 393.16,691.18 388.82,691.20 388.72,693.83 385.75,693.76 385.70,696.83 386.58,696.85 386.47,700.17 383.73,700.01 383.74,698.90 379.89,698.77 379.83,699.84 377.06,699.72 377.15,696.13 374.13,696.09" type="amenity"/>
   <poly color="red" fill="1" id="114690879#1" layer="-1.00" shape="374.13,696.09 372.89,695.09 372.90,691.84 367.28,691.58 367.27,692.92 363.34,692.76 363.31,696.83 361.24,698.45 363.17,700.56 362.99,704.17 365.01,704.28 364.80,707.17 366.56,707.30 366.04,713.10 377.46,714.12 377.96,708.05 391.08,708.94 390.77,714.80 400.05,715.23 400.39,705.54 398.87,705.42 399.10,700.82 397.06,700.63 397.49,691.51 393.27,688.83 393.16,691.18 388.82,691.20 388.72,693.83 385.75,693.76 385.70,696.83 386.58,696.85 386.47,700.17 383.73,700.01 383.74,698.90 379.89,698.77 379.83,699.84 377.06,699.72 377.15,696.13 374.13,696.09" type="building"/>
   <poly color="237,199,199" fill="1" id="114690880" layer="-1.00" shape="373.97,683.96 373.86,687.18 377.10,687.28 377.20,684.06 373.97,683.96" type="amenity"/>
   <poly color="red" fill="1" id="114690880#1" layer="-1.00" shape="373.97,683.96 373.86,687.18 377.10,687.28 377.20,684.06 373.97,683.96" type="building"/>
   <poly color="red" fill="1" id="114690880#2" layer="-1.00" shape="373.97,683.96 373.86,687.18 377.10,687.28 377.20,684.06 373.97,683.96" type="building"/>
   <poly color="red" fill="1" id="116396752" layer="-1.00" shape="433.96,756.49 430.20,756.37 442.85,756.97 481.70,758.20 481.89,752.35 485.73,752.47 486.05,742.43 482.62,742.31 482.85,735.37 467.75,734.89 467.81,733.01 434.75,731.96 433.96,756.49" type="building"/>
   <poly color="red" fill="0" id="116396753" layer="-1.00" shape="554.13,741.19 570.64,741.18" type="building"/>
   <poly color="red" fill="1" id="116398569" layer="-1.00" shape="659.39,554.35 665.42,555.04 666.76,544.54 668.64,529.74 678.97,531.33 689.88,532.66 691.88,518.24 684.39,517.21 679.42,516.53 682.38,495.08 683.99,495.31 684.53,492.06 684.94,488.45 676.93,487.35 680.03,466.16 681.09,466.26 687.62,467.26 693.14,427.28 686.20,426.33 682.24,425.79 679.34,425.38 675.86,450.57 667.60,449.44 667.14,452.71 663.74,452.24 664.26,448.46 653.99,447.04 651.39,465.78 664.39,467.58 662.03,484.63 635.19,480.94 634.04,489.24 657.62,492.48 667.40,493.83 664.59,514.15 664.51,514.73 656.88,513.67 651.24,553.42 659.39,554.35" type="building"/>
   <poly color="red" fill="1" id="116398686" layer="-1.00" shape="812.62,410.42 831.96,413.08 838.59,365.16 808.50,361.02 803.56,396.71 814.31,398.19 812.62,410.42" type="building"/>
   <poly color="207,245,201" fill="1" id="116398686#1" layer="-2.00" shape="812.62,410.42 831.96,413.08 838.59,365.16 808.50,361.02 803.56,396.71 814.31,398.19 812.62,410.42" type="leisure"/>
   <poly color="79,230,125" fill="1" id="116398686#2" layer="-2.00" shape="812.62,410.42 831.96,413.08 838.59,365.16 808.50,361.02 803.56,396.71 814.31,398.19 812.62,410.42" type="sport"/>
   <poly color="red" fill="1" id="116399227" layer="-1.00" shape="647.30,348.86 662.19,350.91 662.72,347.05 661.57,346.89 661.85,344.81 665.20,345.26 665.46,343.30 663.28,343.00 664.40,334.90 649.51,332.85 648.45,340.53 647.30,348.86" type="building"/>
   <poly color="red" fill="1" id="116399229" layer="-1.00" shape="549.68,322.55 568.05,325.13 570.11,310.47 551.74,307.89 549.68,322.55" type="building"/>
   <poly color="red" fill="1" id="116399232" layer="-1.00" shape="451.98,351.89 466.82,353.97 467.40,349.84 466.31,349.69 466.59,347.76 467.68,347.91 468.75,340.24 467.63,340.08 467.90,338.17 469.03,338.33 470.11,330.65 469.03,330.50 469.30,328.59 470.39,328.75 470.95,324.68 461.49,323.35 456.08,322.60 451.98,351.89" type="building"/>
   <poly color="red" fill="1" id="116399300" layer="-1.00" shape="427.70,305.91 445.75,308.43 447.77,293.91 429.72,291.40 427.70,305.91" type="building"/>
   <poly color="red" fill="1" id="116399462" layer="-1.00" shape="400.52,326.41 415.31,328.42 415.86,324.38 414.79,324.24 415.05,322.26 416.13,322.41 417.49,312.42 402.71,310.40 401.67,318.00 400.52,326.41" type="building"/>
   <poly color="red" fill="1" id="116402454" layer="-1.00" shape="305.89,474.65 318.76,476.56 320.65,463.87 314.57,462.97 317.19,445.35 304.66,443.50 301.88,462.12 300.20,461.87 298.85,470.91 306.28,472.01 305.89,474.65" type="building"/>
   <poly color="red" fill="1" id="116402455" layer="-1.00" shape="308.21,437.90 320.90,439.57 323.29,421.48 326.08,421.84 327.71,409.48 315.55,407.88 313.97,419.87 310.64,419.44 308.21,437.90" type="building"/>
   <poly color="red" fill="1" id="116402456" layer="-1.00" shape="337.47,332.76 352.58,334.80 353.15,330.62 351.81,330.44 351.97,329.27 352.08,328.37 353.29,328.53 354.28,321.19 353.09,321.03 353.25,319.85 353.38,318.82 354.62,318.99 355.63,311.50 354.48,311.34 354.64,310.18 354.75,309.31 355.96,309.47 356.51,305.40 346.72,304.07 341.47,303.38 337.47,332.76" type="building"/>
   <poly color="red" fill="1" id="116402458" layer="-1.00" shape="270.00,332.94 285.00,334.97 285.55,330.93 284.42,330.77 284.60,329.42 284.69,328.81 285.82,328.95 286.87,321.26 285.78,321.11 285.90,320.24 286.04,319.18 287.14,319.33 287.69,315.30 286.22,315.11 272.69,313.27 270.00,332.94" type="building"/>
   <poly color="184,184,179" fill="1" id="116405502" layer="-1.00" shape="115.81,421.83 157.14,427.60 163.53,382.08 158.68,381.40 159.37,376.47 127.36,372.00 126.67,376.91 122.21,376.28 121.69,379.97 115.81,421.83" type="parking"/>
   <poly color="red" fill="1" id="116405502#1" layer="-1.00" shape="115.81,421.83 157.14,427.60 163.53,382.08 158.68,381.40 159.37,376.47 127.36,372.00 126.67,376.91 122.21,376.28 121.69,379.97 115.81,421.83" type="building"/>
   <poly color="red" fill="1" id="116405572" layer="-1.00" shape="138.49,368.92 168.67,372.88 172.82,342.22 171.98,342.10 172.09,341.29 176.08,338.23 173.18,334.46 173.30,333.54 174.04,333.64 178.10,303.55 150.00,299.78 147.81,299.49 145.73,314.81 160.72,316.82 158.71,331.75 159.52,331.85 159.43,332.54 155.57,335.36 158.68,339.57 158.59,340.23 157.70,340.11 155.65,355.50 140.54,353.49 138.49,368.92" type="building"/>
   <poly color="red" fill="1" id="116405573" layer="-1.00" shape="172.89,299.62 222.90,306.31 227.86,269.34 189.87,264.27 189.47,267.30 186.83,266.95 186.91,266.34 177.53,265.09 172.89,299.62" type="building"/>
   <poly color="red" fill="1" id="116405650" layer="-1.00" shape="793.66,730.89 801.13,732.62 804.82,716.68 797.16,714.91 796.97,715.70 793.45,714.88 793.67,713.96 788.94,712.87 787.95,717.09 786.66,716.79 786.42,717.82 786.12,719.14 789.58,719.93 789.07,722.14 790.31,722.42 789.79,724.62 791.24,724.95 790.71,727.20 794.33,728.03 793.66,730.89" type="building"/>
   <poly color="184,184,179" fill="1" id="116406826" layer="-1.00" shape="814.55,611.29 818.74,612.28 820.94,613.59 827.24,617.94 817.69,658.58 821.84,659.49 821.10,663.87 823.57,664.48 821.39,673.92 823.16,676.72 820.46,690.11 821.94,693.10 821.08,697.20 814.88,700.95 814.02,705.32 802.60,702.81 800.75,711.61 791.57,709.44 804.78,652.64 814.55,611.29" type="parking"/>
   <poly color="red" fill="1" id="116406830" layer="-1.00" shape="843.07,618.09 849.64,618.99 845.24,601.93 843.07,618.09" type="building"/>
   <poly color="red" fill="1" id="116406836" layer="-1.00" shape="834.25,641.92 849.27,647.34 836.00,632.31 833.83,638.29 835.37,638.84 834.25,641.92" type="building"/>
   <poly color="184,184,179" fill="1" id="116868216" layer="-1.00" shape="745.80,405.77 756.78,407.26 756.29,410.83 755.16,419.06 770.15,421.46 770.68,416.58 778.66,415.97 783.94,416.76 787.37,395.84 788.30,389.48 779.28,388.08 744.76,383.37 744.31,388.65 748.04,389.13 745.80,405.77" type="parking"/>
   <poly color="237,199,199" fill="1" id="116868217" layer="-1.00" shape="725.05,398.74 727.32,401.99 733.06,402.91 733.62,399.37 734.68,399.54 735.89,391.98 726.37,390.47 725.05,398.74" type="amenity"/>
   <poly color="red" fill="1" id="116868217#1" layer="-1.00" shape="725.05,398.74 727.32,401.99 733.06,402.91 733.62,399.37 734.68,399.54 735.89,391.98 726.37,390.47 725.05,398.74" type="building"/>
   <poly color="237,199,255" fill="1" id="116868217#2" layer="-1.00" shape="725.05,398.74 727.32,401.99 733.06,402.91 733.62,399.37 734.68,399.54 735.89,391.98 726.37,390.47 725.05,398.74" type="shop"/>
   <poly color="red" fill="1" id="116868218" layer="-1.00" shape="617.67,433.33 630.55,435.26 632.08,425.05 619.21,423.13 617.67,433.33" type="building"/>
   <poly color="235,235,227" fill="1" id="11982420" layer="-3.00" shape="134.34,208.37 201.39,219.09 207.51,220.07 229.30,223.55 235.15,224.48 243.64,225.84 244.72,226.62 245.38,228.27 246.12,233.47 249.08,233.91 252.27,233.14 256.53,232.21 265.88,233.32 272.38,231.91 375.50,245.56 385.01,244.03 424.21,249.56 428.00,250.10 721.65,289.51 722.11,286.58 726.62,256.29 732.47,256.99 733.82,248.24 727.89,247.36 733.12,211.38 731.16,211.15 731.55,208.21 731.78,206.03 732.09,203.52 727.89,202.93 730.18,186.25 757.32,190.25 761.68,190.89 763.40,179.44 763.73,177.32 766.20,160.98 766.54,158.76 767.33,153.49 772.52,119.19 774.27,107.64 775.92,96.70 772.72,96.20 764.90,84.97 763.20,82.53 759.09,81.25 756.84,73.17 749.95,48.44 742.65,22.77 739.77,12.65 725.69,1.68 716.03,3.16 705.53,2.36 698.06,0.95 230.99,103.08 226.78,102.61 225.94,102.55 223.75,104.01 224.06,110.88 231.28,111.36 231.46,116.62 220.56,121.58 218.65,119.35 152.89,111.72 158.72,60.55 163.14,19.26 24.51,170.80 24.12,173.68 31.98,174.68 34.53,175.02 35.11,171.33 88.55,178.34 89.29,183.21 98.33,182.28 101.48,181.96 101.20,179.72 113.21,178.33 124.02,174.98 129.49,204.26 130.09,207.64 134.34,208.37" type="residential"/>
   <poly color="194,194,130" fill="1" id="11983021" layer="-3.00" shape="425.05,702.83 576.60,737.90 549.46,735.30 502.73,730.59 491.38,727.74 470.92,721.30 449.19,713.65 425.05,702.83" type="landuse"/>
   <poly color="194,194,130" fill="1" id="11983095" layer="-3.00" shape="821.49,731.75 826.08,645.65 822.43,714.18 821.49,731.75" type="landuse"/>
   <poly color="207,245,201" fill="1" id="11983284" layer="-2.00" shape="836.83,586.92 839.41,564.77 836.83,586.92" type="leisure"/>
   <poly color="79,230,125" fill="1" id="11983284#1" layer="-2.00" shape="836.83,586.92 839.41,564.77 836.83,586.92" type="sport"/>
   <poly color="194,194,130" fill="1" id="11984206" layer="-3.00" shape="114.00,354.51 99.76,327.44 95.34,320.36 88.45,308.67 100.26,301.46 117.41,303.66 125.56,245.69 148.17,248.86 165.36,251.53 169.28,252.06 206.74,257.12 215.32,258.28 226.73,259.82 229.33,260.17 229.20,261.56 231.60,263.15 238.99,264.32 241.63,272.14 237.01,308.90 226.86,375.87 232.11,376.82 231.19,379.07 229.97,382.04 223.13,389.06 218.99,398.93 216.14,396.21 171.81,390.70 166.69,432.09 144.73,429.07 110.24,424.35 116.40,363.91 114.00,354.51" type="landuse"/>
   <poly color="184,184,179" fill="1" id="11984286" layer="-1.00" shape="219.19,311.82 187.27,307.59 176.73,383.70 197.96,386.77 200.20,370.33 210.59,371.76 219.19,311.82" type="parking"/>
   <poly color="207,245,201" fill="1" id="11984575" layer="-2.00" shape="100.72,366.40 91.35,381.93 70.04,411.18 71.51,412.23 69.25,415.33 67.01,418.41 65.48,417.29 54.74,432.02 43.60,453.83 39.51,455.09 36.40,457.83 39.26,458.85 45.38,461.03 80.48,476.97 83.37,473.34 87.91,471.53 92.39,472.58 102.63,391.59 102.61,380.87 102.59,376.91 101.66,369.87 100.72,366.40" type="tourism"/>
   <poly color="red" fill="1" id="121748264" layer="-1.00" shape="549.41,411.87 554.79,412.75 555.68,407.36 554.39,407.15 550.29,406.48 549.41,411.87" type="building"/>
   <poly color="red" fill="1" id="121748265" layer="-1.00" shape="418.36,413.46 423.36,414.16 430.48,415.15 431.88,405.18 419.77,403.50 418.36,413.46" type="building"/>
   <poly color="red" fill="1" id="121748266" layer="-1.00" shape="133.03,537.15 175.67,543.31 176.97,534.39 178.02,527.17 135.38,521.00 133.03,537.15" type="building"/>
   <poly color="184,184,179" fill="1" id="121748267" layer="-1.00" shape="194.35,548.10 202.10,549.15 209.71,550.18 210.03,547.82 219.50,548.76 227.66,549.58 229.52,534.40 220.03,526.08 210.47,524.78 207.78,524.41 197.42,523.02 194.35,548.10" type="parking"/>
   <poly color="184,184,179" fill="1" id="121748268" layer="-1.00" shape="501.76,736.96 543.89,737.28 501.76,736.96" type="parking"/>
   <poly color="red" fill="1" id="121748273" layer="-1.00" shape="637.91,435.99 642.82,436.84 644.12,429.32 639.21,428.47 637.91,435.99" type="building"/>
   <poly color="red" fill="1" id="126983475" layer="-1.00" shape="813.09,220.50 818.09,221.21 818.94,215.24 813.93,214.53 813.09,220.50" type="building"/>
   <poly color="237,199,255" fill="1" id="126983475#1" layer="-1.00" shape="813.09,220.50 818.09,221.21 818.94,215.24 813.93,214.53 813.09,220.50" type="shop"/>
   <poly color="red" fill="1" id="136088825" layer="-1.00" shape="374.58,739.39 371.74,730.22 362.20,733.17 365.03,742.33 374.58,739.39" type="building"/>
   <poly color="red" fill="1" id="136088826" layer="-1.00" shape="386.76,726.69 377.18,726.17 376.92,731.06 386.49,731.57 386.76,726.69" type="building"/>
   <poly color="red" fill="1" id="140010256" layer="-1.00" shape="346.72,304.07 347.25,300.04 346.04,299.88 346.17,298.88 346.32,297.84 347.47,298.00 348.83,288.14 333.95,286.09 331.74,302.04 341.47,303.38 346.72,304.07" type="building"/>
   <poly color="red" fill="1" id="140010259" layer="-1.00" shape="461.49,323.35 462.06,319.32 460.93,319.13 461.17,317.16 462.35,317.31 463.76,307.35 448.90,305.25 446.64,321.27 456.08,322.60 461.49,323.35" type="building"/>
   <poly color="red" fill="1" id="140909462" layer="-1.00" shape="77.40,594.89 75.23,594.97 75.14,588.79 74.44,588.80 74.41,586.27 75.09,586.26 74.92,574.14 74.11,574.16 74.08,571.73 74.69,571.72 74.61,565.61 86.62,566.14 86.77,572.61 87.11,587.42 87.27,594.64 77.40,594.89" type="building"/>
   <poly color="red" fill="1" id="140909465" layer="-1.00" shape="27.32,551.05 25.56,550.83 26.52,543.49 28.46,529.27 30.54,514.59 32.52,500.67 33.58,493.13 44.82,494.70 43.97,500.80 44.76,500.90 44.44,503.21 43.55,503.08 41.87,515.16 42.50,515.25 42.16,517.67 41.61,517.59 39.98,529.51 40.60,529.60 40.25,532.18 39.62,532.09 38.08,543.84 38.75,543.93 38.38,546.80 37.86,546.74 37.14,552.30 27.32,551.05" type="building"/>
   <poly color="red" fill="1" id="140909478" layer="-1.00" shape="79.03,653.28 78.94,647.12 78.13,647.12 78.09,644.54 78.73,644.54 78.55,632.42 77.88,632.43 77.84,630.02 78.37,630.01 78.16,618.05 77.52,618.06 77.47,615.37 78.01,615.36 77.75,603.69 77.04,603.70 76.97,600.74 77.54,600.72 77.40,594.89 87.27,594.64 89.26,594.62 89.35,601.92 89.54,616.70 89.74,631.84 89.92,645.19 90.04,653.12 79.03,653.28" type="building"/>
   <poly color="red" fill="1" id="140909505" layer="-1.00" shape="28.02,639.62 16.38,638.09 17.46,629.95 19.17,616.25 21.07,601.18 22.87,587.47 24.77,572.49 26.52,558.01 27.32,551.05 37.14,552.30 39.59,552.49 38.80,558.46 39.47,558.55 39.18,560.79 38.50,560.71 36.84,572.98 37.39,573.06 37.08,575.37 36.63,575.31 34.97,587.35 35.55,587.43 35.20,589.94 34.63,589.86 32.96,601.84 33.55,601.92 33.19,604.45 32.74,604.39 31.06,616.52 31.61,616.60 31.28,619.05 30.73,618.98 29.11,630.89 29.69,630.95 29.33,633.63 28.83,633.56 28.02,639.62" type="building"/>
   <poly color="184,184,179" fill="1" id="140909511" layer="-1.00" shape="199.74,488.59 191.48,487.68 181.73,486.35 181.01,491.16 171.01,489.85 164.88,489.04 172.35,432.97 175.81,406.94 181.84,407.49 209.76,411.24 207.52,428.61 202.05,471.28 201.42,476.00 199.74,488.59" type="parking"/>
   <poly color="184,184,179" fill="1" id="146953872" layer="-1.00" shape="139.95,336.03 123.55,333.88 120.40,357.58 124.11,364.64 135.61,366.31 139.04,344.94 139.95,336.03" type="parking"/>
   <poly color="184,184,179" fill="1" id="146953877" layer="-1.00" shape="140.44,290.44 144.58,259.04 125.34,256.01 121.22,288.16 124.51,288.72 140.44,290.44" type="parking"/>
   <poly color="184,184,179" fill="1" id="146953879" layer="-1.00" shape="123.20,314.00 155.74,318.86 154.79,325.26 141.81,323.32 140.61,330.95 114.96,327.10 115.94,319.46 119.58,320.00 122.18,320.39 123.20,314.00" type="parking"/>
   <poly color="red" fill="1" id="146953888" layer="-1.00" shape="138.49,368.92 123.35,366.91 119.51,358.62 121.35,343.94 112.37,342.82 115.29,319.53 117.15,305.48 117.41,303.66 125.56,245.69 148.17,248.86 142.08,292.16 144.90,295.78 147.81,299.49 145.73,314.81 160.72,316.82 158.71,331.75 159.52,331.85 159.43,332.54 155.57,335.36 158.68,339.57 158.59,340.23 157.70,340.11 155.65,355.50 140.54,353.49 138.49,368.92" type="building"/>
   <poly color="red" fill="1" id="148631177" layer="-1.00" shape="40.35,421.60 76.88,371.45 91.35,381.93 70.04,411.18 71.51,412.23 69.25,415.33 67.01,418.41 65.48,417.29 54.74,432.02 40.35,421.60" type="building"/>
   <poly color="red" fill="1" id="148631203" layer="-1.00" shape="11.92,394.95" type="building"/>
   <poly color="207,245,201" fill="1" id="148631203#1" layer="-2.00" shape="11.92,394.95" type="leisure"/>
   <poly color="79,230,125" fill="1" id="148631203#2" layer="-2.00" shape="11.92,394.95" type="sport"/>
   <poly color="red" fill="1" id="148631265" layer="-1.00" shape="293.29,740.79 302.36,740.91 307.01,740.87 306.87,723.68 304.67,723.71 304.67,723.05 304.63,718.28 297.01,718.34 296.99,718.72 297.02,723.23 297.16,734.80 293.05,734.84 293.29,740.79" type="building"/>
   <poly color="red" fill="1" id="148631268" layer="-1.00" shape="277.95,717.09 283.25,717.05 288.27,716.95 288.24,714.14 288.15,707.64 277.83,707.78 277.95,717.09" type="building"/>
   <poly color="red" fill="1" id="148631271" layer="-1.00" shape="294.25,755.96 294.32,762.36 303.32,762.25 303.25,755.50 303.19,749.82 294.02,749.92 294.04,751.87 288.97,751.92 289.02,756.01 294.25,755.96" type="building"/>
   <poly color="red" fill="1" id="148631280" layer="-1.00" shape="262.98,700.97 272.71,700.56 272.20,688.66 268.88,688.80 268.84,687.76 268.80,686.72 264.58,686.90 264.66,688.94 262.47,689.04 262.98,700.97" type="building"/>
   <poly color="red" fill="1" id="148631286" layer="-1.00" shape="253.17,700.76 257.81,700.59 257.34,687.81 247.54,688.16 247.91,698.22 253.07,698.04 253.17,700.76" type="building"/>
   <poly color="red" fill="1" id="148631288" layer="-1.00" shape="245.82,679.73 257.11,679.54 257.01,672.94 245.71,673.14 245.82,679.73" type="building"/>
   <poly color="red" fill="1" id="148631291" layer="-1.00" shape="260.55,681.07 269.48,680.78 269.27,674.08 260.33,674.35 260.55,681.07" type="building"/>
   <poly color="red" fill="1" id="148631295" layer="-1.00" shape="261.91,666.29 271.00,666.27 270.98,655.58 261.90,655.60 261.90,658.14 261.91,666.29" type="building"/>
   <poly color="237,199,199" fill="0" id="148631296" layer="-1.00" shape="120.87,759.28 122.08,759.41 123.49,745.69 114.54,739.09 102.85,754.84 109.47,759.71 110.41,758.52 112.82,758.73" type="amenity"/>
   <poly color="red" fill="0" id="148631296#1" layer="-1.00" shape="120.87,759.28 122.08,759.41 123.49,745.69 114.54,739.09 102.85,754.84 109.47,759.71 110.41,758.52 112.82,758.73" type="building"/>
   <poly color="207,245,201" fill="1" id="149197824" layer="-2.00" shape="6.50,265.91" type="leisure"/>
   <poly color="79,230,125" fill="1" id="149197824#1" layer="-2.00" shape="6.50,265.91" type="sport"/>
   <poly color="207,245,201" fill="0" id="149197829" layer="-2.00" shape="18.25,268.21 10.82,264.67" type="leisure"/>
   <poly color="79,230,125" fill="0" id="149197829#1" layer="-2.00" shape="18.25,268.21 10.82,264.67" type="sport"/>
   <poly color="red" fill="1" id="149906238" layer="-1.00" shape="849.27,647.34" type="building"/>
   <poly color="237,199,199" fill="1" id="149906276" layer="-1.00" shape="778.96,486.10 769.78,484.94 774.39,448.85 772.03,448.55 772.43,445.40 772.97,441.33 775.02,441.61 777.24,424.79 794.51,427.05 786.60,487.11 778.96,486.10" type="amenity"/>
   <poly color="red" fill="1" id="149906276#1" layer="-1.00" shape="778.96,486.10 769.78,484.94 774.39,448.85 772.03,448.55 772.43,445.40 772.97,441.33 775.02,441.61 777.24,424.79 794.51,427.05 786.60,487.11 778.96,486.10" type="building"/>
   <poly color="red" fill="1" id="149906278" layer="-1.00" shape="112.21,530.33 119.75,531.27 122.53,531.66 124.20,519.50 120.80,519.03 113.82,518.08 113.32,521.68 113.15,522.87 113.00,524.04 112.21,530.33" type="building"/>
   <poly color="red" fill="1" id="149906282" layer="-1.00" shape="239.64,610.43 249.19,610.11 248.83,599.32 239.28,599.64 239.64,610.43" type="building"/>
   <poly color="red" fill="1" id="149906283" layer="-1.00" shape="228.71,595.01 242.90,594.60 242.75,589.22 228.55,589.63 228.71,595.01" type="building"/>
   <poly color="184,184,179" fill="1" id="149930315" layer="-1.00" shape="791.00,705.85 780.85,703.65 782.37,696.75 783.88,689.85 794.02,692.06 792.51,698.93 791.00,705.85" type="parking"/>
   <poly color="184,184,179" fill="1" id="150003904" layer="-1.00" shape="703.39,540.30 718.64,542.44 733.86,435.03 718.61,432.88 703.39,540.30" type="parking"/>
   <poly color="red" fill="1" id="150003920" layer="-1.00" shape="605.71,460.12 612.47,461.00 613.19,455.60 606.41,454.71 605.71,460.12" type="building"/>
   <poly color="207,245,201" fill="1" id="150003942" layer="-2.00" shape="545.87,720.38 609.20,725.92 614.47,725.54 617.30,720.30 617.52,712.64 616.79,707.65 614.98,702.00 562.27,622.43 530.37,574.17 528.20,573.28 509.44,575.55 481.89,573.19 454.07,567.80 486.38,616.89 543.57,700.86 545.87,720.38" type="tourism"/>
   <poly color="red" fill="1" id="151522973" layer="-1.00" shape="522.98,343.32 537.77,345.34 538.32,341.30 537.25,341.15 537.52,339.18 538.59,339.33 539.95,329.34 525.16,327.32 524.14,334.91 522.98,343.32" type="building"/>
   <poly color="red" fill="1" id="151522978" layer="-1.00" shape="574.65,368.93 589.49,371.00 590.07,366.89 588.99,366.74 589.13,365.77 589.27,364.81 590.35,364.96 591.43,357.29 590.31,357.13 590.45,356.17 590.58,355.22 591.71,355.38 592.78,347.70 591.71,347.55 591.84,346.59 591.98,345.64 593.05,345.79 593.63,341.74 584.19,340.41 578.77,339.65 574.65,368.93" type="building"/>
   <poly color="red" fill="1" id="151522982" layer="-1.00" shape="525.16,327.32 526.16,320.02 522.12,319.47 521.96,320.62 519.94,320.34 520.09,319.18 510.14,317.82 508.11,332.74 524.14,334.91 525.16,327.32" type="building"/>
   <poly color="red" fill="1" id="151523628" layer="-1.00" shape="584.19,340.41 584.77,336.34 583.63,336.18 583.78,335.18 583.92,334.18 585.07,334.34 586.48,324.37 571.62,322.29 569.37,338.33 578.77,339.65 584.19,340.41" type="building"/>
   <poly color="red" fill="1" id="151523639" layer="-1.00" shape="649.51,332.85 650.51,325.59 646.48,325.04 646.32,326.28 644.24,325.99 644.41,324.74 634.44,323.36 632.38,338.30 640.98,339.44 642.20,339.64 641.89,341.88 643.96,342.17 644.27,339.95 648.45,340.53 649.51,332.85" type="building"/>
   <poly color="red" fill="1" id="151523645" layer="-1.00" shape="686.03,364.84 687.06,357.52 683.04,356.97 682.86,358.21 680.84,357.94 681.01,356.69 670.93,355.28 668.83,370.25 684.94,372.50 686.03,364.84" type="building"/>
   <poly color="red" fill="1" id="151523646" layer="-1.00" shape="402.71,310.40 403.71,303.10 399.66,302.55 399.50,303.70 397.48,303.42 397.64,302.26 387.68,300.91 385.65,315.82 401.67,318.00 402.71,310.40" type="building"/>
   <poly color="red" fill="1" id="151523647" layer="-1.00" shape="286.22,315.11 286.78,311.00 285.65,310.86 285.78,309.89 285.91,308.95 287.04,309.11 288.08,301.46 286.97,301.30 287.05,300.72 287.24,299.29 288.36,299.45 288.90,295.49 283.49,294.76 273.89,293.44 271.20,313.06 272.69,313.27 286.22,315.11" type="building"/>
   <poly color="red" fill="1" id="151523648" layer="-1.00" shape="288.90,295.49 299.63,296.96 301.67,282.07 297.67,281.52 297.51,282.68 296.47,282.50 295.57,282.41 295.73,281.25 285.53,279.86 283.49,294.76 288.90,295.49" type="building"/>
   <poly color="184,184,179" fill="1" id="23269952" layer="-1.00" shape="788.90,161.47 811.01,164.40 816.82,120.91 811.53,120.21 790.43,117.42 785.25,156.23 789.53,156.79 788.90,161.47" type="parking"/>
   <poly color="red" fill="1" id="232728553" layer="-1.00" shape="810.38,735.94 809.18,732.71 804.95,734.48 806.22,737.51 810.38,735.94" type="building"/>
   <poly color="207,245,201" fill="1" id="232728616" layer="-2.00" shape="601.42,742.48 585.29,740.45 601.48,741.75 601.42,742.48" type="leisure"/>
   <poly color="79,230,125" fill="1" id="232728616#1" layer="-2.00" shape="601.42,742.48 585.29,740.45 601.48,741.75 601.42,742.48" type="sport"/>
   <poly color="red" fill="1" id="23418653" layer="-1.00" shape="199.56,161.97 201.59,163.03 203.64,163.48 205.82,163.13 207.80,162.80 209.79,161.66 211.83,158.81 212.42,155.74 212.17,152.76 210.49,150.30 208.03,148.26 210.99,122.42 209.48,122.24 209.68,120.49 190.05,118.26 189.90,119.57 185.15,119.03 184.40,125.54 189.19,126.09 188.26,134.12 183.37,133.56 180.56,134.19 179.61,134.08 178.80,133.97 156.68,130.94 155.19,132.56 152.00,160.31 160.22,161.24 156.87,190.40 186.66,193.81 186.84,192.24 195.96,193.28 199.56,161.97" type="building"/>
   <poly color="207,245,201" fill="1" id="23418653#1" layer="-2.00" shape="199.56,161.97 201.59,163.03 203.64,163.48 205.82,163.13 207.80,162.80 209.79,161.66 211.83,158.81 212.42,155.74 212.17,152.76 210.49,150.30 208.03,148.26 210.99,122.42 209.48,122.24 209.68,120.49 190.05,118.26 189.90,119.57 185.15,119.03 184.40,125.54 189.19,126.09 188.26,134.12 183.37,133.56 180.56,134.19 179.61,134.08 178.80,133.97 156.68,130.94 155.19,132.56 152.00,160.31 160.22,161.24 156.87,190.40 186.66,193.81 186.84,192.24 195.96,193.28 199.56,161.97" type="leisure"/>
   <poly color="79,230,125" fill="1" id="23418653#2" layer="-2.00" shape="199.56,161.97 201.59,163.03 203.64,163.48 205.82,163.13 207.80,162.80 209.79,161.66 211.83,158.81 212.42,155.74 212.17,152.76 210.49,150.30 208.03,148.26 210.99,122.42 209.48,122.24 209.68,120.49 190.05,118.26 189.90,119.57 185.15,119.03 184.40,125.54 189.19,126.09 188.26,134.12 183.37,133.56 180.56,134.19 179.61,134.08 178.80,133.97 156.68,130.94 155.19,132.56 152.00,160.31 160.22,161.24 156.87,190.40 186.66,193.81 186.84,192.24 195.96,193.28 199.56,161.97" type="sport"/>
   <poly color="207,245,201" fill="1" id="23418655" layer="-2.00" shape="180.56,134.19 181.82,133.39 182.89,133.10 185.22,133.63 186.81,132.90 187.53,131.14 187.44,129.28 185.88,127.85 183.16,126.98 180.80,126.54 178.89,126.60 176.62,127.00 175.16,128.29 174.61,129.87 175.47,131.87 177.38,132.88 178.66,133.34 178.80,133.97 179.61,134.08 180.56,134.19" type="leisure"/>
   <poly color="79,230,125" fill="1" id="23418655#1" layer="-2.00" shape="180.56,134.19 181.82,133.39 182.89,133.10 185.22,133.63 186.81,132.90 187.53,131.14 187.44,129.28 185.88,127.85 183.16,126.98 180.80,126.54 178.89,126.60 176.62,127.00 175.16,128.29 174.61,129.87 175.47,131.87 177.38,132.88 178.66,133.34 178.80,133.97 179.61,134.08 180.56,134.19" type="sport"/>
   <poly color="184,184,179" fill="1" id="23418656" layer="-1.00" shape="158.70,164.75 152.49,164.36 152.08,169.06 149.11,168.79 140.56,168.46 139.70,202.20 227.30,214.09 227.93,209.39 229.78,207.51 231.84,205.37 237.46,204.27 221.70,134.14 216.57,135.62 212.00,136.68 217.16,161.56 212.36,162.66 217.88,190.09 222.89,189.18 225.69,201.75 221.27,202.04 217.60,201.93 218.01,197.16 203.15,195.44 202.53,200.03 155.58,195.05 158.70,164.75" type="parking"/>
   <poly color="red" fill="1" id="23422618" layer="-1.00" shape="261.92,81.86 253.42,80.72 250.83,80.32 249.87,87.33 247.90,101.73 246.92,108.85 258.02,110.37 261.92,81.86" type="building"/>