<?xml version="1.0" encoding="utf-8"?><!-- generated on 10/11/17 17:51:20 by SUMO netconvert Version 0.25.0
<?xml version="1.0" encoding="UTF-8"?>

<configuration xmlns:xsi="http://www.w3.org/2001/XMLSchema-instance" xsi:noNamespaceSchemaLocation="http://sumo.dlr.de/xsd/netconvertConfiguration.xsd">

    <input>
        <type-files value="osmNetconvert.typ.xml"/>
        <osm-files value="DN_Nideggen_rural_800.osm"/>
    </input>

    <output>
        <output-file value="DN_Nideggen_rural_800.net.xml"/>
    </output>

    <projection>
        <proj.utm value="true"/>
    </projection>

    <edge_removal>
        <remove-edges.by-type value="highway.track,highway.unsurfaced,highway.raceway,highway.bridleway,highway.path,highway.footway,highway.pedestrian,highway.cycleway,highway.step,highway.steps,highway.stairs,highway.bus_guideway,highway.ford,railway.rail,railway.tram,railway.light_rail,railway.subway,railway.preserved,railway.narrow_gauge,railway.monorail,railway.funicular"/>
    </edge_removal>

</configuration>
-->
<net version="0.25">
   <location convBoundary="0.00,0.00,768.34,798.04" netOffset="-321980.32,-5618116.30" origBoundary="6.479412,50.687606,6.490445,50.694876" projParameter="+proj=utm +zone=32 +ellps=WGS84 +datum=WGS84 +units=m +no_defs"/>
   <type allow="pedestrian" id="highway.bridleway" numLanes="1" oneway="1" priority="1" speed="2.78" width="2.00"/>
   <type allow="bus" id="highway.bus_guideway" numLanes="1" oneway="1" priority="1" speed="8.33"/>
   <type allow="bicycle" id="highway.cycleway" numLanes="1" oneway="0" priority="1" speed="5.56" width="1.00"/>
   <type allow="pedestrian" id="highway.footway" numLanes="1" oneway="1" priority="1" speed="8.33" width="2.00"/>
   <type allow="army" id="highway.ford" numLanes="1" oneway="0" priority="1" speed="2.78"/>
   <type disallow="tram rail_urban rail rail_electric ship" id="highway.living_street" numLanes="1" oneway="0" priority="3" speed="2.78"/>
   <type allow="private emergency authority army vip passenger hov taxi bus coach delivery truck trailer motorcycle evehicle custom1 custom2" id="highway.motorway" numLanes="2" oneway="1" priority="13" speed="44.44"/>
   <type allow="private emergency authority army vip passenger hov taxi bus coach delivery truck trailer motorcycle evehicle custom1 custom2" id="highway.motorway_link" numLanes="1" oneway="1" priority="12" speed="22.22"/>
   <type allow="bicycle pedestrian" id="highway.path" numLanes="1" oneway="1" priority="1" speed="2.78" width="2.00"/>
   <type allow="pedestrian" id="highway.pedestrian" numLanes="1" oneway="1" priority="1" speed="8.33" width="2.00"/>
   <type disallow="tram rail_urban rail rail_electric ship" id="highway.primary" numLanes="2" oneway="0" priority="9" speed="27.78"/>
   <type disallow="tram rail_urban rail rail_electric ship" id="highway.primary_link" numLanes="1" oneway="0" priority="8" speed="22.22"/>
   <type allow="vip" id="highway.raceway" numLanes="2" oneway="0" priority="14" speed="83.33"/>
   <type disallow="tram rail_urban rail rail_electric ship" id="highway.residential" numLanes="1" oneway="0" priority="4" speed="13.89"/>
   <type disallow="tram rail_urban rail rail_electric ship" id="highway.secondary" numLanes="2" oneway="0" priority="7" speed="27.78"/>
   <type disallow="tram rail_urban rail rail_electric ship" id="highway.secondary_link" numLanes="1" oneway="0" priority="6" speed="22.22"/>
   <type allow="delivery bicycle pedestrian" id="highway.service" numLanes="1" oneway="0" priority="2" speed="5.56"/>
   <type disallow="tram rail_urban rail rail_electric ship" id="highway.services" numLanes="1" oneway="0" priority="1" speed="8.33"/>
   <type allow="pedestrian" id="highway.stairs" numLanes="1" oneway="1" priority="1" speed="1.39" width="2.00"/>
   <type allow="pedestrian" id="highway.step" numLanes="1" oneway="1" priority="1" speed="1.39" width="2.00"/>
   <type allow="pedestrian" id="highway.steps" numLanes="1" oneway="1" priority="1" speed="1.39" width="2.00"/>
   <type disallow="tram rail_urban rail rail_electric ship" id="highway.tertiary" numLanes="1" oneway="0" priority="6" speed="22.22"/>
   <type disallow="tram rail_urban rail rail_electric ship" id="highway.tertiary_link" numLanes="1" oneway="0" priority="5" speed="22.22"/>
   <type disallow="tram rail_urban rail rail_electric ship" id="highway.track" numLanes="1" oneway="0" priority="1" speed="5.56"/>
   <type disallow="tram rail_urban rail rail_electric bicycle pedestrian ship" id="highway.trunk" numLanes="2" oneway="0" priority="11" speed="27.78"/>
   <type disallow="tram rail_urban rail rail_electric bicycle pedestrian ship" id="highway.trunk_link" numLanes="1" oneway="0" priority="10" speed="22.22"/>
   <type disallow="tram rail_urban rail rail_electric ship" id="highway.unclassified" numLanes="1" oneway="0" priority="5" speed="13.89"/>
   <type disallow="tram rail_urban rail rail_electric ship" id="highway.unsurfaced" numLanes="1" oneway="0" priority="1" speed="8.33"/>
   <type allow="rail_urban" id="railway.light_rail" numLanes="1" oneway="1" priority="15" speed="27.78"/>
   <type allow="rail" id="railway.preserved" numLanes="1" oneway="1" priority="15" speed="27.78"/>
   <type allow="rail rail_electric" id="railway.rail" numLanes="1" oneway="1" priority="15" speed="83.33"/>
   <type allow="rail_urban" id="railway.subway" numLanes="1" oneway="1" priority="15" speed="27.78"/>
   <type allow="tram" id="railway.tram" numLanes="1" oneway="1" priority="15" speed="13.89"/>
   <edge function="internal" id=":1343596214_0">
      <lane disallow="tram rail_urban rail rail_electric ship" id=":1343596214_0_0" index="0" length="4.82" shape="588.66,-1.51 590.13,-1.25 590.84,-0.67 590.79,0.26 589.99,1.51" speed="13.89"/>
   </edge>
   <edge function="internal" id=":1432727243_0">
      <lane disallow="tram rail_urban rail rail_electric ship" id=":1432727243_0_0" index="0" length="4.82" shape="374.81,790.57 376.16,791.20 376.69,791.96 376.40,792.83 375.30,793.83" speed="13.89"/>
   </edge>
   <edge function="internal" id=":1432727245_0">
      <lane disallow="tram rail_urban rail rail_electric ship" id=":1432727245_0_0" index="0" length="7.89" shape="339.55,799.20 337.39,799.21 335.74,798.53 334.61,797.16 333.98,795.09" speed="13.89"/>
   </edge>
   <edge function="internal" id=":1432727245_1">
      <lane disallow="tram rail_urban rail rail_electric ship" id=":1432727245_1_0" index="0" length="2.80" shape="339.55,799.20 338.21,798.56 337.68,797.81 337.80,797.44" speed="13.89"/>
   </edge>
   <edge function="internal" id=":1432727245_4">
      <lane id=":1432727245_4_0" index="0" length="2.02" shape="337.80,797.44 337.96,796.93 339.06,795.93" speed="13.89"/>
   </edge>
   <edge function="internal" id=":1432727245_2">
      <lane disallow="tram rail_urban rail rail_electric ship" id=":1432727245_2_0" index="0" length="2.58" shape="337.24,794.59 337.45,795.27 337.82,795.72 338.36,795.94 339.06,795.93" speed="13.89"/>
   </edge>
   <edge function="internal" id=":1432727245_3">
      <lane disallow="tram rail_urban rail rail_electric ship" id=":1432727245_3_0" index="0" length="2.20" shape="337.24,794.59 336.62,795.94 336.04,796.35" speed="13.89"/>
   </edge>
   <edge function="internal" id=":1432727245_5">
      <lane id=":1432727245_5_0" index="0" length="2.62" shape="336.04,796.35 335.86,796.47 334.99,796.19 333.98,795.09" speed="13.89"/>
   </edge>
   <edge function="internal" id=":1438315033_0">
      <lane allow="delivery bicycle pedestrian" id=":1438315033_0_0" index="0" length="4.82" shape="89.66,784.00 89.40,782.53 89.71,781.67 90.60,781.39 92.05,781.72" speed="5.56"/>
   </edge>
   <edge function="internal" id=":1438315039_0">
      <lane allow="delivery bicycle pedestrian" id=":1438315039_0_0" index="0" length="8.15" shape="107.68,795.45 105.91,796.83 104.14,797.29 102.37,796.83 100.60,795.44" speed="13.89"/>
   </edge>
   <edge function="internal" id=":1438315039_1">
      <lane disallow="tram rail_urban rail rail_electric ship" id=":1438315039_1_0" index="0" length="4.82" shape="107.68,795.45 106.22,795.77 105.34,795.50 105.03,794.63 105.30,793.17" speed="22.22"/>
   </edge>
   <edge function="internal" id=":1438315039_2">
      <lane disallow="tram rail_urban rail rail_electric ship" id=":1438315039_2_0" index="0" length="2.66" shape="102.99,793.16 103.56,793.62 104.14,793.77 104.72,793.62 105.30,793.17" speed="13.89"/>
   </edge>
   <edge function="internal" id=":1438315039_3">
      <lane allow="delivery bicycle pedestrian" id=":1438315039_3_0" index="0" length="4.82" shape="102.99,793.16 103.25,794.63 102.93,795.50 102.05,795.77 100.60,795.44" speed="5.56"/>
   </edge>
   <edge function="internal" id=":1753853152_0">
      <lane disallow="tram rail_urban rail rail_electric ship" id=":1753853152_0_0" index="0" length="7.93" shape="352.44,500.27 346.85,505.90" speed="13.89"/>
   </edge>
   <edge function="internal" id=":1753853152_1">
      <lane disallow="tram rail_urban rail rail_electric ship" id=":1753853152_1_0" index="0" length="4.82" shape="350.69,497.48 349.21,497.43 348.42,496.95 348.33,496.03 348.95,494.68" speed="13.89"/>
   </edge>
   <edge function="internal" id=":1753853152_2">
      <lane disallow="tram rail_urban rail rail_electric ship" id=":1753853152_2_0" index="0" length="6.42" shape="342.44,491.14 343.67,492.00 344.87,492.40 346.05,492.36 347.20,491.88" speed="13.89"/>
      <lane disallow="tram rail_urban rail rail_electric ship" id=":1753853152_2_1" index="1" length="6.42" shape="342.44,491.14 344.75,493.02 346.61,494.24 348.01,494.79 348.95,494.68" speed="13.89"/>
   </edge>
   <edge function="internal" id=":1753853152_4">
      <lane disallow="tram rail_urban rail rail_electric ship" id=":1753853152_4_0" index="0" length="16.93" shape="342.44,491.14 346.04,494.96 347.98,498.69 348.25,502.33 346.85,505.90" speed="13.89"/>
   </edge>
   <edge function="internal" id=":1753853164_0">
      <lane disallow="tram rail_urban rail rail_electric ship" id=":1753853164_0_0" index="0" length="7.43" shape="333.10,512.19 331.70,511.90 330.16,511.95 328.48,512.35 326.66,513.10" speed="13.89"/>
      <lane disallow="tram rail_urban rail rail_electric ship" id=":1753853164_0_1" index="1" length="7.43" shape="333.10,512.19 329.96,511.14 327.60,510.44 326.02,510.11 325.22,510.13" speed="13.89"/>
   </edge>
   <edge function="internal" id=":1753853164_2">
      <lane disallow="tram rail_urban rail rail_electric ship" id=":1753853164_2_0" index="0" length="16.58" shape="333.10,512.19 328.72,510.08 325.81,507.33 324.39,503.94 324.44,499.90" speed="13.89"/>
   </edge>
   <edge function="internal" id=":1753853164_3">
      <lane disallow="tram rail_urban rail rail_electric ship" id=":1753853164_3_0" index="0" length="4.92" shape="322.34,504.19 323.01,503.66 323.59,502.77 324.07,501.51 324.44,499.90" speed="13.89"/>
   </edge>
   <edge function="internal" id=":1753853164_4">
      <lane disallow="tram rail_urban rail rail_electric ship" id=":1753853164_4_0" index="0" length="4.82" shape="323.78,507.16 325.25,507.36 325.98,507.92 325.97,508.84 325.22,510.13" speed="13.89"/>
   </edge>
   <edge function="internal" id=":1753853189_0">
      <lane disallow="tram rail_urban rail rail_electric ship" id=":1753853189_0_0" index="0" length="5.01" shape="337.06,515.25 336.61,514.36 335.83,513.56 334.71,512.86 333.26,512.25" speed="13.89"/>
   </edge>
   <edge function="internal" id=":1753853189_1">
      <lane disallow="tram rail_urban rail rail_electric ship" id=":1753853189_1_0" index="0" length="4.82" shape="340.22,514.28 340.65,512.86 341.32,512.22 342.22,512.38 343.37,513.32" speed="13.89"/>
   </edge>
   <edge function="internal" id=":1753853189_2">
      <lane disallow="tram rail_urban rail rail_electric ship" id=":1753853189_2_0" index="0" length="7.38" shape="346.80,505.98 346.22,507.26 345.99,508.75 346.09,510.45 346.53,512.36" speed="13.89"/>
      <lane disallow="tram rail_urban rail rail_electric ship" id=":1753853189_2_1" index="1" length="7.38" shape="346.80,505.98 345.15,508.70 344.03,510.83 343.44,512.37 343.37,513.32" speed="13.89"/>
   </edge>
   <edge function="internal" id=":1753853189_4">
      <lane disallow="tram rail_urban rail rail_electric ship" id=":1753853189_4_0" index="0" length="16.25" shape="346.80,505.98 343.81,509.75 340.56,512.05 337.04,512.88 333.26,512.25" speed="13.89"/>
   </edge>
   <edge function="internal" id=":2006742598_0">
      <lane disallow="tram rail_urban rail rail_electric ship" id=":2006742598_0_0" index="0" length="0.49" shape="256.61,106.15 256.21,106.43" speed="13.89"/>
   </edge>
   <edge function="internal" id=":2006742598_1">
      <lane disallow="tram rail_urban rail rail_electric ship" id=":2006742598_1_0" index="0" length="2.41" shape="256.61,106.15 255.13,106.25 254.30,105.84" speed="13.89"/>
   </edge>
   <edge function="internal" id=":2006742598_4">
      <lane id=":2006742598_4_0" index="0" length="2.41" shape="254.30,105.84 254.13,104.93 254.62,103.53" speed="13.89"/>
   </edge>
   <edge function="internal" id=":2006742598_2">
      <lane disallow="tram rail_urban rail rail_electric ship" id=":2006742598_2_0" index="0" length="0.16" shape="254.48,103.62 254.62,103.53" speed="13.89"/>
   </edge>
   <edge function="internal" id=":2006742598_3">
      <lane disallow="tram rail_urban rail rail_electric ship" id=":2006742598_3_0" index="0" length="2.41" shape="254.48,103.62 255.97,103.67 256.75,104.16" speed="13.89"/>
   </edge>
   <edge function="internal" id=":2006742598_5">
      <lane id=":2006742598_5_0" index="0" length="2.41" shape="256.75,104.16 256.83,105.08 256.21,106.43" speed="13.89"/>
   </edge>
   <edge function="internal" id=":2006742607_0">
      <lane disallow="tram rail_urban rail rail_electric ship" id=":2006742607_0_0" index="0" length="0.10" shape="248.40,111.22 248.38,111.23" speed="13.89"/>
   </edge>
   <edge function="internal" id=":2006742607_1">
      <lane disallow="tram rail_urban rail rail_electric ship" id=":2006742607_1_0" index="0" length="2.41" shape="248.40,111.22 246.91,111.16 246.13,110.67" speed="13.89"/>
   </edge>
   <edge function="internal" id=":2006742607_4">
      <lane id=":2006742607_4_0" index="0" length="2.41" shape="246.13,110.67 246.05,109.76 246.68,108.41" speed="13.89"/>
   </edge>
   <edge function="internal" id=":2006742607_2">
      <lane disallow="tram rail_urban rail rail_electric ship" id=":2006742607_2_0" index="0" length="0.10" shape="246.72,108.38 246.68,108.41" speed="13.89"/>
   </edge>
   <edge function="internal" id=":2006742607_3">
      <lane disallow="tram rail_urban rail rail_electric ship" id=":2006742607_3_0" index="0" length="2.41" shape="246.72,108.38 248.20,108.47 248.97,108.98" speed="13.89"/>
   </edge>
   <edge function="internal" id=":2006742607_5">
      <lane id=":2006742607_5_0" index="0" length="2.41" shape="248.97,108.98 249.03,109.90 248.38,111.23" speed="13.89"/>
   </edge>
   <edge function="internal" id=":2026890778_0">
      <lane disallow="tram rail_urban rail rail_electric ship" id=":2026890778_0_0" index="0" length="9.74" shape="194.38,242.08 190.81,241.79 188.03,241.78 186.02,242.07 184.80,242.64" speed="9.73"/>
   </edge>
   <edge function="internal" id=":2026890778_1">
      <lane disallow="tram rail_urban rail rail_electric ship" id=":2026890778_1_0" index="0" length="15.64" shape="194.38,242.08 189.59,240.97 187.47,238.99 188.01,236.14 191.22,232.42" speed="9.73"/>
   </edge>
   <edge function="internal" id=":2026890778_2">
      <lane allow="delivery bicycle pedestrian" id=":2026890778_2_0" index="0" length="4.82" shape="194.38,242.08 193.24,241.13 192.92,240.26 193.42,239.49 194.74,238.80" speed="5.56"/>
   </edge>
   <edge function="internal" id=":2026890778_3">
      <lane allow="delivery bicycle pedestrian" id=":2026890778_3_0" index="0" length="6.39" shape="193.45,234.85 192.14,236.37 191.92,237.54 192.78,238.35 194.74,238.80" speed="9.73"/>
   </edge>
   <edge function="internal" id=":2026890778_4">
      <lane disallow="tram rail_urban rail rail_electric ship" id=":2026890778_4_0" index="0" length="11.64" shape="193.45,234.85 191.08,237.04 189.16,238.79 187.23,240.52 184.80,242.64" speed="13.89"/>
   </edge>
   <edge function="internal" id=":2026890778_5">
      <lane disallow="tram rail_urban rail rail_electric ship" id=":2026890778_5_0" index="0" length="2.41" shape="193.45,234.85 191.98,235.08 191.12,234.75" speed="13.89"/>
   </edge>
   <edge function="internal" id=":2026890778_9">
      <lane id=":2026890778_9_0" index="0" length="2.41" shape="191.12,234.75 190.87,233.86 191.22,232.42" speed="13.89"/>
   </edge>
   <edge function="internal" id=":2026890778_6">
      <lane disallow="tram rail_urban rail rail_electric ship" id=":2026890778_6_0" index="0" length="11.53" shape="182.65,240.13 185.07,238.03 186.98,236.32 188.86,234.59 191.22,232.42" speed="13.89"/>
   </edge>
   <edge function="internal" id=":2026890778_7">
      <lane allow="delivery bicycle pedestrian" id=":2026890778_7_0" index="0" length="4.58" shape="182.65,240.13 184.44,239.16 186.93,238.64" speed="9.73"/>
   </edge>
   <edge function="internal" id=":2026890778_8">
      <lane disallow="tram rail_urban rail rail_electric ship" id=":2026890778_8_0" index="0" length="2.41" shape="182.65,240.13 184.13,239.95 184.98,240.31" speed="13.89"/>
   </edge>
   <edge function="internal" id=":2026890778_10">
      <lane id=":2026890778_10_0" index="0" length="7.82" shape="186.93,238.64 187.05,238.62 190.48,238.50 194.74,238.80" speed="9.73"/>
   </edge>
   <edge function="internal" id=":2026890778_11">
      <lane id=":2026890778_11_0" index="0" length="2.41" shape="184.98,240.31 185.20,241.21 184.80,242.64" speed="13.89"/>
   </edge>
   <edge function="internal" id=":2026890789_0">
      <lane disallow="tram rail_urban rail rail_electric ship" id=":2026890789_0_0" index="0" length="8.62" shape="240.95,240.19 235.94,247.21" speed="13.89"/>
   </edge>
   <edge function="internal" id=":2026890789_1">
      <lane allow="delivery bicycle pedestrian" id=":2026890789_1_0" index="0" length="4.40" shape="240.95,240.19 239.01,241.85 237.26,242.45" speed="9.73"/>
   </edge>
   <edge function="internal" id=":2026890789_2">
      <lane disallow="tram rail_urban rail rail_electric ship" id=":2026890789_2_0" index="0" length="2.29" shape="240.95,240.19 239.51,240.59 238.74,240.39" speed="13.89"/>
   </edge>
   <edge function="internal" id=":2026890789_9">
      <lane id=":2026890789_9_0" index="0" length="5.50" shape="237.26,242.45 236.87,242.59 234.55,242.40 232.03,241.28" speed="9.73"/>
   </edge>
   <edge function="internal" id=":2026890789_10">
      <lane id=":2026890789_10_0" index="0" length="2.53" shape="238.74,240.39 238.62,240.36 238.27,239.50 238.46,238.03" speed="13.89"/>
   </edge>
   <edge function="internal" id=":2026890789_3">
      <lane disallow="tram rail_urban rail rail_electric ship" id=":2026890789_3_0" index="0" length="5.22" shape="233.74,238.45 235.10,239.07 236.34,239.21 237.46,238.86 238.46,238.03" speed="9.73"/>
   </edge>
   <edge function="internal" id=":2026890789_4">
      <lane disallow="tram rail_urban rail rail_electric ship" id=":2026890789_4_0" index="0" length="10.28" shape="233.74,238.45 235.92,240.23 237.01,242.29 237.01,244.61 235.94,247.21" speed="9.73"/>
   </edge>
   <edge function="internal" id=":2026890789_5">
      <lane allow="delivery bicycle pedestrian" id=":2026890789_5_0" index="0" length="4.82" shape="233.74,238.45 234.37,239.80 234.30,240.72 233.52,241.21 232.03,241.28" speed="5.56"/>
   </edge>
   <edge function="internal" id=":2026890789_6">
      <lane allow="delivery bicycle pedestrian" id=":2026890789_6_0" index="0" length="4.99" shape="233.10,245.53 233.62,244.27 233.62,243.14 233.09,242.14 232.03,241.28" speed="9.73"/>
   </edge>
   <edge function="internal" id=":2026890789_7">
      <lane disallow="tram rail_urban rail rail_electric ship" id=":2026890789_7_0" index="0" length="9.22" shape="233.10,245.53 238.46,238.03" speed="13.89"/>
   </edge>
   <edge function="internal" id=":2026890789_8">
      <lane disallow="tram rail_urban rail rail_electric ship" id=":2026890789_8_0" index="0" length="2.61" shape="233.10,245.53 234.44,244.89 235.36,244.95 235.47,245.12" speed="13.89"/>
   </edge>
   <edge function="internal" id=":2026890789_11">
      <lane id=":2026890789_11_0" index="0" length="2.21" shape="235.47,245.12 235.86,245.73 235.94,247.21" speed="13.89"/>
   </edge>
   <edge function="internal" id=":2026890989_0">
      <lane disallow="tram rail_urban rail rail_electric ship" id=":2026890989_0_0" index="0" length="0.10" shape="206.22,303.00 206.22,303.00" speed="13.89"/>
   </edge>
   <edge function="internal" id=":2026891024_0">
      <lane disallow="tram rail_urban rail rail_electric ship" id=":2026891024_0_0" index="0" length="0.10" shape="212.09,309.20 212.09,309.20" speed="13.89"/>
   </edge>
   <edge function="internal" id=":2026891115_0">
      <lane disallow="tram rail_urban rail rail_electric ship" id=":2026891115_0_0" index="0" length="4.82" shape="41.23,364.05 39.88,364.68 38.96,364.61 38.47,363.83 38.40,362.34" speed="13.89"/>
   </edge>
   <edge function="internal" id=":2027005653_0">
      <lane disallow="tram rail_urban rail rail_electric ship" id=":2027005653_0_0" index="0" length="4.82" shape="769.03,321.67 769.81,322.94 769.85,323.86 769.13,324.44 767.66,324.68" speed="13.89"/>
   </edge>
   <edge function="internal" id=":2057042886_0">
      <lane disallow="tram rail_urban rail rail_electric ship" id=":2057042886_0_0" index="0" length="8.03" shape="501.90,785.59 500.45,787.25 498.82,788.04 497.02,787.94 495.03,786.97" speed="13.89"/>
   </edge>
   <edge function="internal" id=":2057042886_1">
      <lane disallow="tram rail_urban rail rail_electric ship" id=":2057042886_1_0" index="0" length="2.79" shape="501.90,785.59 500.54,786.18 499.62,786.08 499.42,785.74" speed="13.89"/>
   </edge>
   <edge function="internal" id=":2057042886_4">
      <lane id=":2057042886_4_0" index="0" length="2.02" shape="499.42,785.74 499.15,785.28 499.14,783.79" speed="13.89"/>
   </edge>
   <edge function="internal" id=":2057042886_2">
      <lane disallow="tram rail_urban rail rail_electric ship" id=":2057042886_2_0" index="0" length="2.62" shape="496.89,784.24 497.54,784.56 498.13,784.59 498.66,784.34 499.14,783.79" speed="13.89"/>
   </edge>
   <edge function="internal" id=":2057042886_3">
      <lane disallow="tram rail_urban rail rail_electric ship" id=":2057042886_3_0" index="0" length="2.20" shape="496.89,784.24 497.45,785.62 497.36,786.33" speed="13.89"/>
   </edge>
   <edge function="internal" id=":2057042886_5">
      <lane id=":2057042886_5_0" index="0" length="2.62" shape="497.36,786.33 497.33,786.54 496.52,786.98 495.03,786.97" speed="13.89"/>
   </edge>
   <edge function="internal" id=":2090716379_0">
      <lane disallow="tram rail_urban rail rail_electric ship" id=":2090716379_0_0" index="0" length="4.82" shape="3.81,189.40 2.69,188.42 2.40,187.54 2.92,186.78 4.26,186.14" speed="13.89"/>
   </edge>
   <edge function="internal" id=":221172680_0">
      <lane disallow="tram rail_urban rail rail_electric ship" id=":221172680_0_0" index="0" length="4.82" shape="425.32,772.56 424.92,773.99 424.26,774.64 423.35,774.50 422.18,773.58" speed="13.89"/>
   </edge>
   <edge function="internal" id=":221174381_0">
      <lane disallow="tram rail_urban rail rail_electric ship" id=":221174381_0_0" index="0" length="6.34" shape="379.95,484.58 378.20,484.04 376.62,483.94 375.20,484.29 373.96,485.08" speed="13.89"/>
   </edge>
   <edge function="internal" id=":221174381_1">
      <lane disallow="tram rail_urban rail rail_electric ship" id=":221174381_1_0" index="0" length="14.29" shape="379.95,484.58 375.91,482.38 373.63,479.86 373.10,477.01 374.32,473.84" speed="13.89"/>
   </edge>
   <edge function="internal" id=":221174381_2">
      <lane disallow="tram rail_urban rail rail_electric ship" id=":221174381_2_0" index="0" length="5.18" shape="379.95,484.58 379.05,483.26 378.96,482.27 379.70,481.62 381.27,481.29" speed="13.89"/>
   </edge>
   <edge function="internal" id=":221174381_3">
      <lane disallow="tram rail_urban rail rail_electric ship" id=":221174381_3_0" index="0" length="5.83" shape="379.91,477.36 379.03,479.13 378.96,480.38 379.71,481.10 381.27,481.29" speed="13.89"/>
   </edge>
   <edge function="internal" id=":221174381_4">
      <lane disallow="tram rail_urban rail rail_electric ship" id=":221174381_4_0" index="0" length="9.26" shape="379.91,477.36 373.96,485.08" speed="13.89"/>
      <lane disallow="tram rail_urban rail rail_electric ship" id=":221174381_4_1" index="1" length="9.26" shape="377.11,475.60 371.79,482.59" speed="13.89"/>
   </edge>
   <edge function="internal" id=":221174381_6">
      <lane disallow="tram rail_urban rail rail_electric ship" id=":221174381_6_0" index="0" length="2.60" shape="377.11,475.60 375.76,476.21 374.84,476.12 374.74,475.95" speed="13.89"/>
   </edge>
   <edge function="internal" id=":221174381_11">
      <lane id=":221174381_11_0" index="0" length="2.22" shape="374.74,475.95 374.36,475.33 374.32,473.84" speed="13.89"/>
   </edge>
   <edge function="internal" id=":221174381_7">
      <lane disallow="tram rail_urban rail rail_electric ship" id=":221174381_7_0" index="0" length="7.35" shape="367.45,477.62 371.53,472.08" speed="13.89"/>
      <lane disallow="tram rail_urban rail rail_electric ship" id=":221174381_7_1" index="1" length="7.35" shape="369.62,480.10 374.32,473.84" speed="13.89"/>
   </edge>
   <edge function="internal" id=":221174381_9">
      <lane disallow="tram rail_urban rail rail_electric ship" id=":221174381_9_0" index="0" length="3.43" shape="369.62,480.10 372.60,478.69 372.73,478.72" speed="13.89"/>
   </edge>
   <edge function="internal" id=":221174381_10">
      <lane disallow="tram rail_urban rail rail_electric ship" id=":221174381_10_0" index="0" length="2.08" shape="369.62,480.10 371.10,479.91 371.65,480.14" speed="13.89"/>
   </edge>
   <edge function="internal" id=":221174381_12">
      <lane id=":221174381_12_0" index="0" length="8.97" shape="372.73,478.72 375.22,479.32 377.96,480.64 381.27,481.29" speed="13.89"/>
   </edge>
   <edge function="internal" id=":221174381_13">
      <lane id=":221174381_13_0" index="0" length="2.74" shape="371.65,480.14 371.95,480.26 372.18,481.15 371.79,482.59" speed="13.89"/>
   </edge>
   <edge function="internal" id=":221174384_0">
      <lane disallow="tram rail_urban rail rail_electric ship" id=":221174384_0_0" index="0" length="6.42" shape="281.67,533.81 280.64,532.91 279.46,532.28 278.14,531.92 276.69,531.81" speed="13.89"/>
      <lane disallow="tram rail_urban rail rail_electric ship" id=":221174384_0_1" index="1" length="6.42" shape="281.67,533.81 279.49,531.49 277.93,529.84 276.97,528.84 276.63,528.51" speed="13.89"/>
   </edge>
   <edge function="internal" id=":221174384_2">
      <lane disallow="tram rail_urban rail rail_electric ship" id=":221174384_2_0" index="0" length="13.01" shape="283.76,532.95 284.48,519.96" speed="13.89"/>
   </edge>
   <edge function="internal" id=":221174384_3">
      <lane disallow="tram rail_urban rail rail_electric ship" id=":221174384_3_0" index="0" length="7.25" shape="276.51,521.91 277.63,521.74 278.68,521.25 279.66,520.44 280.57,519.33" speed="13.89"/>
      <lane disallow="tram rail_urban rail rail_electric ship" id=":221174384_3_1" index="1" length="7.25" shape="276.57,525.21 284.48,519.96" speed="13.89"/>
   </edge>
   <edge function="internal" id=":221174384_5">
      <lane disallow="tram rail_urban rail rail_electric ship" id=":221174384_5_0" index="0" length="3.18" shape="276.57,525.21 277.82,526.01 278.25,526.83 277.91,527.53" speed="13.89"/>
   </edge>
   <edge function="internal" id=":221174384_6">
      <lane id=":221174384_6_0" index="0" length="1.64" shape="277.91,527.53 277.85,527.66 276.63,528.51" speed="13.89"/>
   </edge>
   <edge function="internal" id=":221174389_0">
      <lane disallow="tram rail_urban rail rail_electric ship" id=":221174389_0_0" index="0" length="10.15" shape="140.41,589.99 138.07,591.93 136.46,593.25 134.81,594.52 132.37,596.33" speed="13.89"/>
      <lane disallow="tram rail_urban rail rail_electric ship" id=":221174389_0_1" index="1" length="10.15" shape="138.31,587.45 136.01,589.35 134.43,590.64 132.81,591.89 130.42,593.67" speed="13.89"/>
   </edge>
   <edge function="internal" id=":221174389_2">
      <lane disallow="tram rail_urban rail rail_electric ship" id=":221174389_2_0" index="0" length="5.13" shape="138.31,587.45 135.28,589.09 133.61,588.99" speed="13.89"/>
   </edge>
   <edge function="internal" id=":221174389_3">
      <lane disallow="tram rail_urban rail rail_electric ship" id=":221174389_3_0" index="0" length="2.41" shape="138.31,587.45 136.83,587.60 135.99,587.22" speed="13.89"/>
   </edge>
   <edge function="internal" id=":221174389_11">
      <lane id=":221174389_11_0" index="0" length="9.30" shape="133.61,588.99 132.37,588.92 129.58,586.93 126.92,583.13" speed="13.89"/>
   </edge>
   <edge function="internal" id=":221174389_12">
      <lane id=":221174389_12_0" index="0" length="2.41" shape="135.99,587.22 135.78,586.33 136.21,584.90" speed="13.89"/>
   </edge>
   <edge function="internal" id=":221174389_4">
      <lane disallow="tram rail_urban rail rail_electric ship" id=":221174389_4_0" index="0" length="5.24" shape="129.81,581.53 130.70,582.71 131.72,583.24 132.85,583.12 134.11,582.36" speed="13.89"/>
   </edge>
   <edge function="internal" id=":221174389_5">
      <lane disallow="tram rail_urban rail rail_electric ship" id=":221174389_5_0" index="0" length="13.22" shape="129.81,581.53 131.70,585.65 132.43,589.04 132.00,591.72 130.42,593.67" speed="13.89"/>
   </edge>
   <edge function="internal" id=":221174389_6">
      <lane disallow="tram rail_urban rail rail_electric ship" id=":221174389_6_0" index="0" length="4.82" shape="129.81,581.53 129.69,583.02 129.17,583.77 128.24,583.81 126.92,583.13" speed="13.89"/>