<?xml version="1.0" encoding="utf-8"?><!-- generated on 10/11/17 17:51:25 by SUMO polyconvert Version 0.25.0
<?xml version="1.0" encoding="UTF-8"?>

<configuration xmlns:xsi="http://www.w3.org/2001/XMLSchema-instance" xsi:noNamespaceSchemaLocation="http://sumo.dlr.de/xsd/polyconvertConfiguration.xsd">

    <input>
        <net-file value="DN_Nideggen_rural_800.net.xml"/>
        <osm-files value="DN_Nideggen_rural_800.osm"/>
        <type-file value="osmPolyconvert.typ.xml"/>
    </input>

    <output>
        <output-file value="DN_Nideggen_rural_800.poly.xml"/>
    </output>

    <projection>
        <proj.utm value="true"/>
    </projection>

    <processing>
        <poi-layer-offset value="5"/>
    </processing>

</configuration>
-->
<additional>
   <location convBoundary="-19.12,-16.90,784.08,810.91" netOffset="-321980.32,-5618116.30" origBoundary="6.479412,50.687606,6.490599,50.694899" projParameter="+proj=utm +zone=32 +ellps=WGS84 +datum=WGS84 +units=m +no_defs"/>
   <poly color="237,199,199" fill="1" id="127004275" layer="-1.00" shape="-9.58,211.10 -10.59,216.65 1.09,218.73 0.65,220.97 2.31,221.22 2.67,219.00 17.65,221.50 20.38,214.18 22.92,212.68 23.49,210.67 23.29,207.92 21.84,206.95 21.94,205.42 13.81,204.45 15.32,203.01 15.59,201.56 14.52,200.31 14.86,198.60 4.06,197.37 -7.36,196.13 -8.36,202.44 -15.57,201.70 -9.58,211.10" type="amenity"/>
   <poly color="red" fill="1" id="127004275#1" layer="-1.00" shape="-9.58,211.10 -10.59,216.65 1.09,218.73 0.65,220.97 2.31,221.22 2.67,219.00 17.65,221.50 20.38,214.18 22.92,212.68 23.49,210.67 23.29,207.92 21.84,206.95 21.94,205.42 13.81,204.45 15.32,203.01 15.59,201.56 14.52,200.31 14.86,198.60 4.06,197.37 -7.36,196.13 -8.36,202.44 -15.57,201.70 -9.58,211.10" type="building"/>
   <poly color="128,255,128" fill="1" id="127004275#2" layer="-1.00" shape="-9.58,211.10 -10.59,216.65 1.09,218.73 0.65,220.97 2.31,221.22 2.67,219.00 17.65,221.50 20.38,214.18 22.92,212.68 23.49,210.67 23.29,207.92 21.84,206.95 21.94,205.42 13.81,204.45 15.32,203.01 15.59,201.56 14.52,200.31 14.86,198.60 4.06,197.37 -7.36,196.13 -8.36,202.44 -15.57,201.70 -9.58,211.10" type="historic"/>
   <poly color="red" fill="1" id="127005336" layer="-1.00" shape="110.35,160.47 129.67,154.87 126.93,145.41 119.50,147.57 118.79,145.15 94.79,152.10 96.76,158.86 108.86,155.35 110.35,160.47" type="building"/>
   <poly color="red" fill="1" id="127005337" layer="-1.00" shape="42.51,190.20 51.60,190.41 51.77,183.22 42.67,183.02 42.51,190.20" type="building"/>
   <poly color="128,255,128" fill="1" id="127005337#1" layer="-1.00" shape="42.51,190.20 51.60,190.41 51.77,183.22 42.67,183.02 42.51,190.20" type="historic"/>
   <poly color="140,196,107" fill="1" id="129878547" layer="-3.00" shape="213.24,505.45 159.32,510.91 163.68,457.89 219.26,464.63 213.24,505.45" type="forest"/>
   <poly color="242,242,204" fill="1" id="129878548" layer="-3.00" shape="235.32,442.34 219.34,465.88 216.36,485.89 264.20,458.10 244.46,442.03 235.32,442.34" type="farm"/>
   <poly color="242,242,204" fill="1" id="129878549" layer="-3.00" shape="192.11,431.63 209.56,409.86 221.73,421.13 211.01,436.91 204.63,440.51 192.11,431.63" type="farm"/>
   <poly color="red" fill="1" id="129878550" layer="-1.00" shape="182.36,448.89 190.54,437.54 198.93,443.54 197.15,446.02 198.68,447.11 195.85,451.05 194.44,450.04 191.93,453.53 188.20,450.86 187.14,452.32 182.36,448.89" type="building"/>
   <poly color="red" fill="1" id="129878551" layer="-1.00" shape="220.91,461.13 208.59,451.22 216.68,441.21 225.11,447.98 221.99,451.84 225.88,454.98 220.91,461.13" type="building"/>
   <poly color="194,194,130" fill="0" id="129946021" layer="-3.00" shape="409.90,781.96 395.43,742.09 385.28,712.45 375.58,678.51 357.86,663.30 335.20,643.85 310.84,672.62 322.46,679.23 345.85,697.35 361.26,708.17 361.24,708.27 369.38,759.39" type="landuse"/>
   <poly color="242,242,204" fill="0" id="129946022" layer="-3.00" shape="369.38,759.39 329.44,766.58 321.29,718.42 361.26,708.17 345.85,697.35 322.46,679.23 310.92,672.65 292.06,693.49 249.75,657.89 226.93,685.04 293.94,717.28" type="farm"/>
   <poly color="235,235,227" fill="1" id="129946023" layer="-3.00" shape="333.04,765.75 325.54,717.51 361.24,708.27 369.12,759.32 333.04,765.75" type="residential"/>
   <poly color="184,184,179" fill="1" id="130651399" layer="-1.00" shape="78.88,772.79 86.74,771.68 101.67,781.47 92.82,791.62 87.74,791.98 72.46,781.53 78.88,772.79" type="parking"/>
   <poly color="red" fill="1" id="130651403" layer="-1.00" shape="52.59,792.40 60.01,798.05 55.35,804.14 47.93,798.49 52.59,792.40" type="building"/>
   <poly color="207,245,201" fill="1" id="130651404" layer="-2.00" shape="94.34,761.53 127.36,720.98 143.26,733.86 110.24,774.41 94.34,761.53" type="leisure"/>
   <poly color="79,230,125" fill="1" id="130651404#1" layer="-2.00" shape="94.34,761.53 127.36,720.98 143.26,733.86 110.24,774.41 94.34,761.53" type="sport"/>
   <poly color="red" fill="1" id="130651405" layer="-1.00" shape="60.01,798.05 72.38,781.92 83.42,790.33 55.35,804.14 60.01,798.05" type="building"/>
   <poly color="red" fill="1" id="130651406" layer="-1.00" shape="35.55,807.37 32.84,810.91 41.00,807.52 39.07,810.05 35.55,807.37" type="building"/>
   <poly color="red" fill="1" id="130651407" layer="-1.00" shape="45.69,781.96 41.08,788.00 33.76,797.53 29.66,802.89 35.55,807.37 39.07,810.05 41.00,807.52 47.93,798.49 52.59,792.40 55.10,789.13 45.69,781.96" type="building"/>
   <poly color="140,196,107" fill="1" id="130654415" layer="-3.00" shape="6.85,719.84" type="forest"/>
   <poly color="red" fill="1" id="130654415#1" layer="-1.00" shape="6.85,719.84" type="building"/>
   <poly color="red" fill="1" id="130654417" layer="-1.00" shape="33.76,797.53 29.95,794.63 37.26,785.09 41.08,788.00 33.76,797.53" type="building"/>
   <poly color="181,209,209" fill="0" id="130700887" layer="-4.00" shape="146.96,619.19 123.14,633.20 110.45,639.67 79.45,656.26 61.25,669.19 54.67,672.83 53.17,673.65 46.41,681.30 41.66,691.20 36.47,702.31 33.67,705.98 32.60,707.12 7.29,724.72" type="water"/>
   <poly color="181,209,209" fill="0" id="130700888" layer="-4.00" shape="87.48,698.51 67.15,683.00" type="water"/>
   <poly color="181,209,209" fill="0" id="130700889" layer="-4.00" shape="62.63,679.29 54.67,672.83" type="water"/>
   <poly color="181,209,209" fill="0" id="130700890" layer="-4.00" shape="67.15,683.00 62.63,679.29" type="water"/>
   <poly color="184,184,179" fill="0" id="130700897" layer="-1.00" shape="-3.18,540.12 0.50,551.67 4.74,563.75" type="parking"/>
   <poly color="181,209,209" fill="0" id="130701272" layer="-4.00" shape="94.14,740.31 79.74,736.16 53.31,723.22 33.67,705.98" type="water"/>
   <poly color="red" fill="1" id="130770229" layer="-1.00" shape="261.18,721.85 255.14,737.81 251.46,736.44 250.68,738.48 247.70,737.37 248.49,735.28 242.82,733.15 245.98,724.79 251.83,727.00 254.70,719.41 261.18,721.85" type="building"/>
   <poly color="red" fill="1" id="130770230" layer="-1.00" shape="236.94,729.81 234.00,728.62 232.71,731.79 228.42,730.05 227.41,732.56 222.66,730.65 226.14,722.06 230.26,723.72 233.43,715.91 241.29,719.09 236.94,729.81" type="building"/>
   <poly color="red" fill="1" id="130770231" layer="-1.00" shape="202.96,778.79 220.54,778.04 220.21,770.20 213.32,770.49 213.14,766.09 215.68,765.98 215.43,760.27 208.05,760.58 208.27,765.69 202.41,765.94 202.96,778.79" type="building"/>
   <poly color="184,184,179" fill="1" id="130770232" layer="-1.00" shape="138.07,770.49 151.97,787.83 158.98,784.45 166.21,777.45 160.29,774.97 179.62,749.51 175.79,746.61 185.02,729.88 171.52,724.29 155.72,747.06 146.00,759.74 138.07,770.49" type="parking"/>
   <poly color="red" fill="1" id="130770233" layer="-1.00" shape="261.40,785.66 275.17,785.22 275.02,780.67 276.77,780.61 276.64,776.62 283.84,776.38 283.66,770.95 270.19,771.40 270.23,772.85 268.00,772.93 268.25,780.49 261.24,780.73 261.40,785.66" type="building"/>
   <poly color="red" fill="1" id="130770234" layer="-1.00" shape="198.58,698.15 208.69,703.51 212.26,696.80 210.43,695.84 213.56,689.96 215.74,691.11 214.89,692.70 221.33,696.10 224.83,689.53 211.48,682.46 208.69,687.70 205.14,685.83 198.58,698.15" type="building"/>
   <poly color="red" fill="1" id="130770235" layer="-1.00" shape="191.87,720.31 205.99,726.24 207.66,722.29 215.68,725.67 218.73,718.45 214.68,716.75 214.20,717.89 211.89,716.92 214.52,710.70 206.46,707.31 205.39,709.85 202.84,708.78 198.90,718.10 193.73,715.93 191.87,720.31" type="building"/>
   <poly color="red" fill="1" id="130770238" layer="-1.00" shape="246.19,630.76 240.03,638.79 257.41,652.03 263.55,644.00 246.19,630.76" type="building"/>
   <poly color="red" fill="1" id="130770244" layer="-1.00" shape="118.50,687.04 114.63,699.03 128.09,703.34 131.95,691.36 118.50,687.04" type="building"/>
   <poly color="red" fill="1" id="130770257" layer="-1.00" shape="262.21,620.31 260.03,623.24 256.42,620.57 258.61,617.64 262.21,620.31" type="building"/>
   <poly color="red" fill="1" id="130770259" layer="-1.00" shape="227.06,670.54 232.43,674.23 235.77,669.41 230.40,665.71 227.06,670.54" type="building"/>
   <poly color="red" fill="1" id="130770260" layer="-1.00" shape="168.61,793.37 172.44,800.57 177.64,797.81 173.80,790.61 168.61,793.37" type="building"/>
   <poly color="red" fill="1" id="130770264" layer="-1.00" shape="172.28,663.53 176.87,667.19 179.40,664.02 174.82,660.36 172.28,663.53" type="building"/>
   <poly color="red" fill="1" id="130770269" layer="-1.00" shape="142.77,669.80 136.95,677.33 145.94,684.25 151.77,676.71 142.77,669.80" type="building"/>
   <poly color="red" fill="1" id="130770271" layer="-1.00" shape="292.06,618.91 273.13,604.86 276.98,599.70 295.91,613.76 292.06,618.91" type="building"/>
   <poly color="red" fill="1" id="130770276" layer="-1.00" shape="200.98,615.62 193.53,624.69 203.23,632.60 210.68,623.54 207.16,620.67 200.98,615.62" type="building"/>
   <poly color="red" fill="1" id="130770281" layer="-1.00" shape="188.08,647.34 181.92,654.98 185.58,657.93 189.74,661.22 195.88,653.60 188.08,647.34" type="building"/>
   <poly color="red" fill="1" id="130770287" layer="-1.00" shape="215.27,624.02 213.14,626.27 210.68,623.54 207.16,620.67 209.31,618.41 215.27,624.02" type="building"/>
   <poly color="red" fill="1" id="130770291" layer="-1.00" shape="172.44,800.57 187.60,802.36 183.51,794.69 177.64,797.81 172.44,800.57" type="building"/>
   <poly color="red" fill="1" id="130770293" layer="-1.00" shape="260.97,604.49 253.82,614.09 258.61,617.64 262.21,620.31 269.37,610.73 260.97,604.49" type="building"/>
   <poly color="red" fill="1" id="130770295" layer="-1.00" shape="289.42,622.45 292.06,618.91 295.91,613.76 302.72,618.82 296.24,627.50 289.42,622.45" type="building"/>
   <poly color="red" fill="1" id="130770298" layer="-1.00" shape="217.82,621.23 217.21,624.77 215.27,624.02 209.31,618.41 211.32,615.99 217.82,621.23" type="building"/>
   <poly color="red" fill="1" id="130770302" layer="-1.00" shape="185.58,657.93 183.08,661.05 188.39,665.28 190.89,662.14 189.74,661.22 185.58,657.93" type="building"/>
   <poly color="red" fill="1" id="130770303" layer="-1.00" shape="285.99,597.60 296.11,605.80 308.28,590.84 304.26,587.58 301.93,590.45 295.83,585.50 285.99,597.60" type="building"/>
   <poly color="red" fill="1" id="130770304" layer="-1.00" shape="296.11,605.80 305.52,613.42 315.71,600.91 309.62,595.97 311.60,593.53 308.28,590.84 296.11,605.80" type="building"/>
   <poly color="red" fill="1" id="130770309" layer="-1.00" shape="276.29,640.04 286.09,647.32 299.22,629.73 296.24,627.50 289.42,622.45 278.55,637.00 276.29,640.04" type="building"/>
   <poly color="red" fill="1" id="130770310" layer="-1.00" shape="261.22,547.60 250.84,559.87 256.67,564.77 261.98,558.50 260.67,557.39 265.74,551.40 261.22,547.60" type="building"/>
   <poly color="red" fill="1" id="130770313" layer="-1.00" shape="256.42,620.57 250.35,628.70 272.48,645.13 276.29,640.04 278.55,637.00 260.03,623.24 256.42,620.57" type="building"/>
   <poly color="red" fill="1" id="130770318" layer="-1.00" shape="276.23,801.89 282.96,801.69 276.23,801.89" type="building"/>
   <poly color="red" fill="1" id="130770319" layer="-1.00" shape="260.19,765.35 278.38,764.48 277.65,748.84 266.76,749.35 267.21,759.02 259.91,759.36 260.19,765.35" type="building"/>
   <poly color="red" fill="1" id="130770321" layer="-1.00" shape="282.96,801.69 290.04,801.48 282.96,801.69" type="building"/>
   <poly color="red" fill="1" id="130770324" layer="-1.00" shape="219.01,622.19 227.63,611.57 219.13,604.70 215.56,601.83 206.94,612.45 211.32,615.99 217.82,621.23 219.01,622.19" type="building"/>
   <poly color="red" fill="1" id="130770329" layer="-1.00" shape="226.20,576.69 221.77,570.27 230.35,564.39 232.30,567.23 234.89,565.45 237.36,569.05 226.20,576.69" type="building"/>
   <poly color="red" fill="1" id="130770331" layer="-1.00" shape="160.54,657.03 170.88,665.28 172.28,663.53 174.82,660.36 175.84,659.09 165.49,650.85 160.54,657.03" type="building"/>
   <poly color="red" fill="1" id="130770335" layer="-1.00" shape="158.94,788.30 174.05,780.28 178.29,788.22 173.80,790.61 168.61,793.37 163.18,796.25 158.94,788.30" type="building"/>
   <poly color="red" fill="1" id="130770337" layer="-1.00" shape="290.04,801.48 297.27,801.26 290.04,801.48" type="building"/>
   <poly color="red" fill="1" id="130770339" layer="-1.00" shape="280.15,562.70 289.80,551.36 293.43,554.42 298.33,548.66 304.45,553.84 300.95,558.28 309.36,565.84 298.67,577.73 280.15,562.70" type="building"/>
   <poly color="red" fill="1" id="130770342" layer="-1.00" shape="198.84,755.80 213.90,755.20 213.34,741.48 203.77,741.88 204.10,749.94 198.60,750.16 198.84,755.80" type="building"/>
   <poly color="red" fill="1" id="130770345" layer="-1.00" shape="228.48,793.51 244.51,792.79 243.79,776.78 236.76,777.08 237.00,782.51 228.00,782.90 228.48,793.51" type="building"/>
   <poly color="red" fill="1" id="130770350" layer="-1.00" shape="248.37,802.86 255.55,802.65 248.37,802.86" type="building"/>
   <poly color="red" fill="1" id="130770352" layer="-1.00" shape="255.55,802.65 262.74,802.44 255.55,802.65" type="building"/>
   <poly color="red" fill="1" id="130770366" layer="-1.00" shape="277.91,743.87 277.66,733.94 274.53,734.02 274.41,729.03 277.01,728.97 276.86,723.23 285.51,723.00 286.04,743.66 277.91,743.87" type="building"/>
   <poly color="red" fill="1" id="130770369" layer="-1.00" shape="146.95,662.99 152.08,667.06 151.07,668.32 159.37,674.90 162.37,671.15 167.34,675.10 169.68,672.17 151.28,657.56 146.95,662.99" type="building"/>
   <poly color="red" fill="1" id="130770370" layer="-1.00" shape="268.94,802.10 276.23,801.89 269.41,802.10 268.94,802.10" type="building"/>
   <poly color="red" fill="1" id="130770371" layer="-1.00" shape="270.25,585.89 279.30,593.41 283.62,588.23 284.90,589.29 289.22,584.09 283.80,579.59 280.52,583.51 275.63,579.44 270.25,585.89" type="building"/>
   <poly color="red" fill="1" id="130770372" layer="-1.00" shape="227.47,654.05 224.59,658.22 223.24,657.29 216.15,667.54 220.62,670.60 222.72,667.56 227.06,670.54 230.40,665.71 234.91,659.17 227.47,654.05" type="building"/>
   <poly color="140,196,107" fill="0" id="130789516" layer="-3.00" shape="412.63,772.65 398.35,731.73 385.39,689.88 374.64,651.24 361.14,615.83 355.57,623.49 368.81,651.58 357.86,663.30 375.58,678.51 385.28,712.45 395.43,742.09 409.90,781.96" type="forest"/>
   <poly color="red" fill="1" id="130789524" layer="-1.00" shape="333.79,553.76 331.15,546.31 339.77,543.05 342.29,550.42 333.79,553.76" type="building"/>
   <poly color="140,196,107" fill="1" id="130789532" layer="-4.00" shape="590.01,780.73 592.65,791.40 588.51,785.80 590.01,780.73" type="natural"/>
   <poly color="red" fill="1" id="146171993" layer="-1.00" shape="310.88,493.94 322.26,498.84 326.99,488.45 315.31,483.88 310.88,493.94" type="building"/>
   <poly color="red" fill="1" id="146171994" layer="-1.00" shape="307.13,502.42 310.88,493.94 315.31,483.88 317.28,479.41 324.89,471.79 321.45,461.10 306.65,477.10 297.88,498.04 307.13,502.42" type="building"/>
   <poly color="194,194,130" fill="1" id="146173216" layer="-3.00" shape="596.74,237.77 625.13,260.70 614.63,273.49 585.28,250.39 596.74,237.77" type="landuse"/>
   <poly color="194,194,130" fill="1" id="146173217" layer="-3.00" shape="649.89,51.58 667.05,69.93 694.22,47.64 678.36,27.62 675.10,27.47 671.91,29.34 649.89,51.58" type="landuse"/>
   <poly color="194,194,130" fill="1" id="146173218" layer="-3.00" shape="706.08,289.74 711.64,255.52 716.62,232.98 720.68,222.51 756.41,236.77 728.46,300.16 706.08,289.74" type="landuse"/>
   <poly color="red" fill="1" id="163703753" layer="-1.00" shape="381.12,597.09 393.43,593.57 392.79,591.33 390.81,584.41 390.23,582.41 377.92,585.94 381.12,597.09" type="building"/>
   <poly color="red" fill="1" id="163703754" layer="-1.00" shape="402.00,553.07 415.48,561.50 418.33,556.96 404.85,548.54 402.00,553.07" type="building"/>
   <poly color="red" fill="1" id="163703755" layer="-1.00" shape="424.34,596.51 419.86,607.74 431.01,612.17 435.49,600.94 424.34,596.51" type="building"/>
   <poly color="red" fill="1" id="163703756" layer="-1.00" shape="500.68,510.50 505.82,498.98 498.75,495.84 493.61,507.35 500.68,510.50" type="building"/>
   <poly color="red" fill="1" id="163703757" layer="-1.00" shape="576.14,706.74 583.09,711.11 589.56,700.86 582.59,696.50 576.14,706.74" type="building"/>
   <poly color="red" fill="1" id="163703758" layer="-1.00" shape="356.94,514.15 360.53,525.29 374.20,520.91 370.61,509.76 356.94,514.15" type="building"/>
   <poly color="red" fill="1" id="163703759" layer="-1.00" shape="570.86,722.55 566.66,728.96 576.73,735.52 580.93,729.10 570.86,722.55" type="building"/>
   <poly color="red" fill="0" id="163703760" layer="-1.00" shape="554.70,792.25 551.13,789.83 545.58,786.09" type="building"/>
   <poly color="red" fill="1" id="163703761" layer="-1.00" shape="525.71,616.00 531.82,603.89 521.14,598.55 515.04,610.64 525.71,616.00" type="building"/>
   <poly color="red" fill="1" id="163703762" layer="-1.00" shape="460.91,674.04 468.88,679.24 475.61,668.98 471.82,666.51 467.64,663.78 460.91,674.04" type="building"/>
   <poly color="red" fill="1" id="163703763" layer="-1.00" shape="563.29,733.99 558.95,740.92 569.43,747.46 573.77,740.52 563.29,733.99" type="building"/>
   <poly color="red" fill="1" id="163703764" layer="-1.00" shape="528.01,765.41 533.27,768.92 540.29,773.60 545.36,766.04 540.10,762.53 533.09,757.85 528.01,765.41" type="building"/>
   <poly color="red" fill="1" id="163703765" layer="-1.00" shape="489.29,626.17 499.53,631.29 503.83,622.73 493.59,617.61 489.29,626.17" type="building"/>
   <poly color="red" fill="1" id="163703766" layer="-1.00" shape="559.65,518.38 551.69,536.12 560.21,539.92 561.86,536.23 565.88,527.27 568.16,522.17 559.65,518.38" type="building"/>
   <poly color="red" fill="1" id="163703767" layer="-1.00" shape="491.94,676.72 484.27,689.08 496.52,696.63 498.54,693.31 504.13,684.24 491.94,676.72" type="building"/>
   <poly color="red" fill="1" id="163703768" layer="-1.00" shape="534.05,674.18 526.75,685.82 533.56,690.06 537.51,692.52 544.81,680.89 534.05,674.18" type="building"/>
   <poly color="red" fill="1" id="163703769" layer="-1.00" shape="492.77,713.17 488.92,719.07 497.02,724.34 500.87,718.44 492.77,713.17" type="building"/>
   <poly color="red" fill="1" id="163703770" layer="-1.00" shape="505.96,576.58 512.52,562.70 502.86,558.15 496.30,572.04 505.96,576.58" type="building"/>
   <poly color="red" fill="1" id="163703771" layer="-1.00" shape="474.61,494.93 467.05,509.96 474.51,513.69 482.07,498.66 474.61,494.93" type="building"/>
   <poly color="red" fill="1" id="163703772" layer="-1.00" shape="513.79,712.82 521.83,718.05 531.27,703.62 528.94,702.10 523.23,698.38 513.79,712.82" type="building"/>
   <poly color="red" fill="1" id="163703773" layer="-1.00" shape="549.08,693.74 555.93,698.06 562.89,687.06 556.03,682.75 549.08,693.74" type="building"/>
   <poly color="red" fill="1" id="163703774" layer="-1.00" shape="507.67,733.13 512.44,736.35 517.52,728.86 512.75,725.64 507.67,733.13" type="building"/>
   <poly color="red" fill="1" id="163703775" layer="-1.00" shape="462.52,524.88 472.42,530.03 476.03,523.11 466.13,517.97 462.52,524.88" type="building"/>
   <poly color="red" fill="1" id="163703776" layer="-1.00" shape="409.54,545.37 420.55,551.79 425.05,544.10 414.04,537.68 409.54,545.37" type="building"/>
   <poly color="red" fill="1" id="163703777" layer="-1.00" shape="562.86,699.96 569.49,703.96 575.94,693.29 569.30,689.30 562.86,699.96" type="building"/>
   <poly color="194,194,130" fill="1" id="163703778" layer="-3.00" shape="505.52,387.42 585.91,390.59 572.75,465.49 553.70,462.88 546.06,499.47 479.04,479.60 492.46,443.10 451.26,438.00 456.34,413.16 498.48,415.57 500.02,391.00 505.52,387.42" type="landuse"/>
   <poly color="red" fill="1" id="163704598" layer="-1.00" shape="468.64,654.84 473.93,658.40 474.66,657.32 480.66,661.35 488.13,650.29 480.48,645.14 479.29,646.91 477.38,645.62 474.60,649.75 472.87,648.58 468.64,654.84" type="building"/>
   <poly color="red" fill="1" id="163704599" layer="-1.00" shape="448.28,622.35 454.26,625.08 459.48,627.48 461.00,624.17 464.76,616.02 458.69,613.23 457.47,615.88 454.75,614.64 453.54,617.26 451.13,616.16 448.28,622.35" type="building"/>
   <poly color="red" fill="1" id="163704600" layer="-1.00" shape="580.16,643.88 586.51,647.07 590.74,638.70 590.21,638.43 592.58,633.71 589.77,632.29 589.00,633.81 585.29,631.94 584.34,633.81 582.91,633.08 578.81,641.21 580.96,642.29 580.16,643.88" type="building"/>
   <poly color="red" fill="1" id="163704603" layer="-1.00" shape="566.98,628.92 563.89,627.44 565.26,624.63 568.34,626.11 566.98,628.92" type="building"/>
   <poly color="red" fill="1" id="163704605" layer="-1.00" shape="503.73,668.16 500.53,673.36 507.32,677.51 510.52,672.31 503.73,668.16" type="building"/>
   <poly color="red" fill="1" id="163704606" layer="-1.00" shape="523.45,687.92 521.75,690.64 529.98,695.77 531.68,693.05 523.45,687.92" type="building"/>
   <poly color="red" fill="1" id="163704607" layer="-1.00" shape="523.23,698.38 525.35,695.14 531.05,698.85 528.94,702.10 523.23,698.38" type="building"/>
   <poly color="red" fill="1" id="163704608" layer="-1.00" shape="422.05,624.65 426.02,626.38 430.09,628.15 432.17,623.41 424.13,619.91 422.05,624.65" type="building"/>
   <poly color="red" fill="1" id="163704609" layer="-1.00" shape="498.54,693.31 505.02,697.24 501.31,703.31 494.83,699.38 496.52,696.63 498.54,693.31" type="building"/>
   <poly color="red" fill="1" id="163704610" layer="-1.00" shape="548.14,621.76 550.83,616.45 547.75,614.91 546.72,616.94 545.06,620.22 548.14,621.76" type="building"/>
   <poly color="red" fill="1" id="163704611" layer="-1.00" shape="523.45,687.92 531.68,693.05 533.56,690.06 526.75,685.82 525.33,684.93 523.45,687.92" type="building"/>
   <poly color="red" fill="1" id="163704613" layer="-1.00" shape="505.09,635.17 517.49,641.76 524.37,628.86 518.73,625.86 515.61,631.71 508.84,628.13 505.09,635.17" type="building"/>
   <poly color="red" fill="1" id="163704614" layer="-1.00" shape="454.26,625.08 452.94,627.94 459.66,631.03 462.50,624.86 461.00,624.17 459.48,627.48 454.26,625.08" type="building"/>
   <poly color="red" fill="1" id="163704616" layer="-1.00" shape="591.50,669.97 582.73,665.49 587.55,656.55 596.02,660.62 591.50,669.97" type="building"/>
   <poly color="red" fill="1" id="163704617" layer="-1.00" shape="560.63,661.42 573.50,667.64 578.91,656.49 571.63,652.96 570.46,655.36 564.88,652.67 560.63,661.42" type="building"/>
   <poly color="red" fill="1" id="163704619" layer="-1.00" shape="591.16,652.30 601.55,657.37 607.89,644.43 602.11,641.61 601.35,643.16 596.75,640.91 591.16,652.30" type="building"/>
   <poly color="red" fill="1" id="163704620" layer="-1.00" shape="523.83,646.18 534.34,651.29 540.12,639.44 532.85,635.91 529.28,643.23 526.04,641.65 523.83,646.18" type="building"/>
   <poly color="red" fill="1" id="163704621" layer="-1.00" shape="471.82,666.51 474.69,662.14 467.68,657.56 465.80,660.42 468.63,662.27 467.64,663.78 471.82,666.51" type="building"/>
   <poly color="red" fill="1" id="163704622" layer="-1.00" shape="554.78,658.74 561.57,644.86 550.97,639.72 547.15,647.56 550.31,649.09 547.36,655.14 554.78,658.74" type="building"/>
   <poly color="red" fill="1" id="163704623" layer="-1.00" shape="494.02,607.18 504.45,612.31 508.40,604.34 503.25,601.81 505.29,597.68 500.01,595.08 494.02,607.18" type="building"/>
   <poly color="red" fill="1" id="163704624" layer="-1.00" shape="408.81,633.17 414.06,621.17 422.05,624.65 426.02,626.38 424.10,630.77 422.05,629.87 418.72,637.48 408.81,633.17" type="building"/>
   <poly color="red" fill="1" id="163704628" layer="-1.00" shape="566.98,628.92 574.66,632.61 577.87,625.97 574.05,624.14 573.55,625.18 569.68,623.32 568.34,626.11 566.98,628.92" type="building"/>
   <poly color="red" fill="1" id="163704629" layer="-1.00" shape="503.73,668.16 510.52,672.31 514.61,665.65 515.65,666.28 518.06,662.37 507.82,656.11 502.23,665.20 504.65,666.68 503.73,668.16" type="building"/>
   <poly color="red" fill="1" id="163704630" layer="-1.00" shape="552.61,629.47 560.97,633.48 563.89,627.44 565.26,624.63 566.63,621.78 562.84,619.96 562.03,621.64 557.44,619.44 552.61,629.47" type="building"/>
   <poly color="red" fill="1" id="163704631" layer="-1.00" shape="459.63,584.55 467.70,588.14 461.00,603.14 456.99,601.36 457.61,599.98 451.87,597.44 454.26,592.09 455.93,592.84 459.63,584.55" type="building"/>
   <poly color="red" fill="1" id="163704632" layer="-1.00" shape="538.65,625.13 546.08,628.88 549.37,622.39 548.14,621.76 545.06,620.22 546.72,616.94 539.60,613.36 536.82,618.86 540.81,620.87 538.65,625.13" type="building"/>
   <poly color="red" fill="1" id="163706159" layer="-1.00" shape="456.02,789.21 457.25,792.46 463.58,790.05 462.35,786.81 456.02,789.21" type="building"/>
   <poly color="red" fill="1" id="163706160" layer="-1.00" shape="452.01,764.89 463.09,760.94 460.85,754.70 449.77,758.65 452.01,764.89" type="building"/>
   <poly color="red" fill="1" id="163706162" layer="-1.00" shape="540.94,754.17 547.10,758.18 550.57,752.87 544.40,748.86 540.94,754.17" type="building"/>
   <poly color="red" fill="1" id="163706163" layer="-1.00" shape="533.27,768.92 531.60,771.41 526.34,767.91 528.01,765.41 533.27,768.92" type="building"/>
   <poly color="red" fill="1" id="163706164" layer="-1.00" shape="479.86,793.32 484.27,786.70 492.43,792.10 479.86,793.32" type="building"/>
   <poly color="red" fill="1" id="163706166" layer="-1.00" shape="485.34,772.55 499.37,782.19 507.36,770.64 493.33,760.98 485.34,772.55" type="building"/>
   <poly color="red" fill="1" id="163706170" layer="-1.00" shape="470.41,745.02 483.73,740.26 489.48,756.28 476.16,761.04 470.41,745.02" type="building"/>
   <poly color="red" fill="1" id="163706172" layer="-1.00" shape="451.92,747.78 450.83,744.72 445.23,746.71 446.33,749.77 451.92,747.78" type="building"/>
   <poly color="red" fill="1" id="163706173" layer="-1.00" shape="447.66,730.56 446.62,727.63 438.17,730.65 439.22,733.57 447.66,730.56" type="building"/>
   <poly color="red" fill="1" id="163706175" layer="-1.00" shape="456.87,769.85 455.74,766.87 460.97,764.89 462.10,767.87 460.93,768.32 456.87,769.85" type="building"/>
   <poly color="red" fill="1" id="163706176" layer="-1.00" shape="460.85,754.70 458.63,748.47 452.91,750.51 447.54,752.42 449.77,758.65 460.85,754.70" type="building"/>
   <poly color="red" fill="1" id="163706178" layer="-1.00" shape="478.75,792.54 479.86,793.32 478.75,792.54" type="building"/>
   <poly color="red" fill="1" id="163706179" layer="-1.00" shape="551.13,789.83 553.67,786.09 558.73,789.50 554.70,792.25 551.13,789.83" type="building"/>
   <poly color="red" fill="1" id="163706181" layer="-1.00" shape="540.10,762.53 543.58,757.35 534.85,751.54 531.38,756.72 533.09,757.85 540.10,762.53" type="building"/>
   <poly color="red" fill="1" id="163706183" layer="-1.00" shape="449.68,772.57 456.87,769.85 460.93,768.32 467.26,784.95 462.35,786.81 456.02,789.21 449.68,772.57" type="building"/>
   <poly color="red" fill="1" id="163706186" layer="-1.00" shape="452.91,750.51 451.92,747.78 446.33,749.77 443.49,750.78 444.48,753.52 447.54,752.42 452.91,750.51" type="building"/>
   <poly color="red" fill="1" id="163706187" layer="-1.00" shape="451.51,736.84 449.08,730.05 447.66,730.56 439.22,733.57 441.65,740.34 442.81,739.94 451.51,736.84" type="building"/>
   <poly color="red" fill="1" id="163706188" layer="-1.00" shape="450.83,744.72 455.17,743.17 452.74,736.39 451.51,736.84 442.81,739.94 445.23,746.71 450.83,744.72" type="building"/>
   <poly color="red" fill="1" id="163706189" layer="-1.00" shape="522.22,744.62 511.80,737.56 509.16,741.43 507.14,740.07 502.04,747.56 514.48,755.99 522.22,744.62" type="building"/>
   <poly color="red" fill="1" id="163706190" layer="-1.00" shape="483.78,733.56 479.97,722.56 472.84,725.02 473.59,727.18 470.87,728.12 473.44,735.55 475.76,734.74 476.25,736.15 483.78,733.56" type="building"/>
   <poly color="red" fill="1" id="163707424" layer="-1.00" shape="528.26,581.04 526.93,584.01 537.03,588.48 538.36,585.48 542.74,587.43 545.30,581.66 548.95,573.48 544.15,571.35 540.55,579.44 530.87,575.15 528.26,581.04" type="building"/>
   <poly color="red" fill="1" id="163707426" layer="-1.00" shape="568.57,602.49 575.03,605.28 577.59,599.36 571.14,596.57 568.57,602.49" type="building"/>
   <poly color="red" fill="1" id="163707427" layer="-1.00" shape="464.66,704.81 457.83,707.20 461.93,718.40 468.73,715.93 464.66,704.81" type="building"/>
   <poly color="red" fill="1" id="163707430" layer="-1.00" shape="567.92,537.77 574.10,540.53 576.72,534.70 570.53,531.94 567.92,537.77" type="building"/>
   <poly color="red" fill="1" id="163707431" layer="-1.00" shape="410.93,694.76 414.14,704.55 421.51,702.14 418.29,692.35 410.93,694.76" type="building"/>