<?xml version="1.0" encoding="utf-8"?><!-- generated on 10/11/17 17:51:31 by SUMO netconvert Version 0.25.0
<?xml version="1.0" encoding="UTF-8"?>

<configuration xmlns:xsi="http://www.w3.org/2001/XMLSchema-instance" xsi:noNamespaceSchemaLocation="http://sumo.dlr.de/xsd/netconvertConfiguration.xsd">

    <input>
        <type-files value="osmNetconvert.typ.xml"/>
        <osm-files value="EM_Endingen_rural_800.osm"/>
    </input>

    <output>
        <output-file value="EM_Endingen_rural_800.net.xml"/>
    </output>

    <projection>
        <proj.utm value="true"/>
    </projection>

    <edge_removal>
        <remove-edges.by-type value="highway.track,highway.unsurfaced,highway.raceway,highway.bridleway,highway.path,highway.footway,highway.pedestrian,highway.cycleway,highway.step,highway.steps,highway.stairs,highway.bus_guideway,highway.ford,railway.rail,railway.tram,railway.light_rail,railway.subway,railway.preserved,railway.narrow_gauge,railway.monorail,railway.funicular"/>
    </edge_removal>

</configuration>
-->
<net version="0.25">
   <location convBoundary="0.00,0.00,861.16,839.22" netOffset="-403038.48,-5332400.24" origBoundary="7.696517,48.137500,7.708170,48.145088" projParameter="+proj=utm +zone=32 +ellps=WGS84 +datum=WGS84 +units=m +no_defs"/>
   <type allow="pedestrian" id="highway.bridleway" numLanes="1" oneway="1" priority="1" speed="2.78" width="2.00"/>
   <type allow="bus" id="highway.bus_guideway" numLanes="1" oneway="1" priority="1" speed="8.33"/>
   <type allow="bicycle" id="highway.cycleway" numLanes="1" oneway="0" priority="1" speed="5.56" width="1.00"/>
   <type allow="pedestrian" id="highway.footway" numLanes="1" oneway="1" priority="1" speed="8.33" width="2.00"/>
   <type allow="army" id="highway.ford" numLanes="1" oneway="0" priority="1" speed="2.78"/>
   <type disallow="tram rail_urban rail rail_electric ship" id="highway.living_street" numLanes="1" oneway="0" priority="3" speed="2.78"/>
   <type allow="private emergency authority army vip passenger hov taxi bus coach delivery truck trailer motorcycle evehicle custom1 custom2" id="highway.motorway" numLanes="2" oneway="1" priority="13" speed="44.44"/>
   <type allow="private emergency authority army vip passenger hov taxi bus coach delivery truck trailer motorcycle evehicle custom1 custom2" id="highway.motorway_link" numLanes="1" oneway="1" priority="12" speed="22.22"/>
   <type allow="bicycle pedestrian" id="highway.path" numLanes="1" oneway="1" priority="1" speed="2.78" width="2.00"/>
   <type allow="pedestrian" id="highway.pedestrian" numLanes="1" oneway="1" priority="1" speed="8.33" width="2.00"/>
   <type disallow="tram rail_urban rail rail_electric ship" id="highway.primary" numLanes="2" oneway="0" priority="9" speed="27.78"/>
   <type disallow="tram rail_urban rail rail_electric ship" id="highway.primary_link" numLanes="1" oneway="0" priority="8" speed="22.22"/>
   <type allow="vip" id="highway.raceway" numLanes="2" oneway="0" priority="14" speed="83.33"/>
   <type disallow="tram rail_urban rail rail_electric ship" id="highway.residential" numLanes="1" oneway="0" priority="4" speed="13.89"/>
   <type disallow="tram rail_urban rail rail_electric ship" id="highway.secondary" numLanes="2" oneway="0" priority="7" speed="27.78"/>
   <type disallow="tram rail_urban rail rail_electric ship" id="highway.secondary_link" numLanes="1" oneway="0" priority="6" speed="22.22"/>
   <type allow="delivery bicycle pedestrian" id="highway.service" numLanes="1" oneway="0" priority="2" speed="5.56"/>
   <type disallow="tram rail_urban rail rail_electric ship" id="highway.services" numLanes="1" oneway="0" priority="1" speed="8.33"/>
   <type allow="pedestrian" id="highway.stairs" numLanes="1" oneway="1" priority="1" speed="1.39" width="2.00"/>
   <type allow="pedestrian" id="highway.step" numLanes="1" oneway="1" priority="1" speed="1.39" width="2.00"/>
   <type allow="pedestrian" id="highway.steps" numLanes="1" oneway="1" priority="1" speed="1.39" width="2.00"/>
   <type disallow="tram rail_urban rail rail_electric ship" id="highway.tertiary" numLanes="1" oneway="0" priority="6" speed="22.22"/>
   <type disallow="tram rail_urban rail rail_electric ship" id="highway.tertiary_link" numLanes="1" oneway="0" priority="5" speed="22.22"/>
   <type disallow="tram rail_urban rail rail_electric ship" id="highway.track" numLanes="1" oneway="0" priority="1" speed="5.56"/>
   <type disallow="tram rail_urban rail rail_electric bicycle pedestrian ship" id="highway.trunk" numLanes="2" oneway="0" priority="11" speed="27.78"/>
   <type disallow="tram rail_urban rail rail_electric bicycle pedestrian ship" id="highway.trunk_link" numLanes="1" oneway="0" priority="10" speed="22.22"/>
   <type disallow="tram rail_urban rail rail_electric ship" id="highway.unclassified" numLanes="1" oneway="0" priority="5" speed="13.89"/>
   <type disallow="tram rail_urban rail rail_electric ship" id="highway.unsurfaced" numLanes="1" oneway="0" priority="1" speed="8.33"/>
   <type allow="rail_urban" id="railway.light_rail" numLanes="1" oneway="1" priority="15" speed="27.78"/>
   <type allow="rail" id="railway.preserved" numLanes="1" oneway="1" priority="15" speed="27.78"/>
   <type allow="rail rail_electric" id="railway.rail" numLanes="1" oneway="1" priority="15" speed="83.33"/>
   <type allow="rail_urban" id="railway.subway" numLanes="1" oneway="1" priority="15" speed="27.78"/>
   <type allow="tram" id="railway.tram" numLanes="1" oneway="1" priority="15" speed="13.89"/>
   <edge function="internal" id=":1197558240_0">
      <lane disallow="tram rail_urban rail rail_electric ship" id=":1197558240_0_0" index="0" length="1.65" shape="775.86,382.13 775.55,380.51" speed="5.56"/>
   </edge>
   <edge function="internal" id=":1197558240_1">
      <lane disallow="tram rail_urban rail rail_electric ship" id=":1197558240_1_0" index="0" length="2.71" shape="775.86,382.13 775.73,380.46 776.17,379.52" speed="5.56"/>
   </edge>
   <edge function="internal" id=":1197558240_4">
      <lane id=":1197558240_4_0" index="0" length="2.71" shape="776.17,379.52 777.19,379.31 778.78,379.82" speed="5.56"/>
   </edge>
   <edge function="internal" id=":1197558240_2">
      <lane disallow="tram rail_urban rail rail_electric ship" id=":1197558240_2_0" index="0" length="0.10" shape="778.77,379.79 778.78,379.82" speed="5.56"/>
   </edge>
   <edge function="internal" id=":1197558240_3">
      <lane disallow="tram rail_urban rail rail_electric ship" id=":1197558240_3_0" index="0" length="2.52" shape="778.77,379.79 778.24,381.18 777.52,381.76 777.42,381.73" speed="5.56"/>
   </edge>
   <edge function="internal" id=":1197558240_5">
      <lane id=":1197558240_5_0" index="0" length="2.30" shape="777.42,381.73 776.63,381.53 775.55,380.51" speed="5.56"/>
   </edge>
   <edge function="internal" id=":1197558303_0">
      <lane disallow="tram rail_urban rail rail_electric ship" id=":1197558303_0_0" index="0" length="0.68" shape="714.42,369.94 713.97,370.45" speed="5.56"/>
   </edge>
   <edge function="internal" id=":1197558303_1">
      <lane disallow="tram rail_urban rail rail_electric ship" id=":1197558303_1_0" index="0" length="2.06" shape="714.42,369.94 712.93,370.02 712.42,369.76" speed="5.56"/>
   </edge>
   <edge function="internal" id=":1197558303_4">
      <lane id=":1197558303_4_0" index="0" length="2.76" shape="712.42,369.76 712.11,369.61 711.94,368.70 712.44,367.30" speed="5.56"/>
   </edge>
   <edge function="internal" id=":1197558303_2">
      <lane disallow="tram rail_urban rail rail_electric ship" id=":1197558303_2_0" index="0" length="2.09" shape="711.07,368.88 712.44,367.30" speed="5.56"/>
   </edge>
   <edge function="internal" id=":1197558303_3">
      <lane disallow="tram rail_urban rail rail_electric ship" id=":1197558303_3_0" index="0" length="2.41" shape="711.07,368.88 712.39,368.19 713.31,368.22" speed="5.56"/>
   </edge>
   <edge function="internal" id=":1197558303_5">
      <lane id=":1197558303_5_0" index="0" length="2.41" shape="713.31,368.22 713.84,368.97 713.97,370.45" speed="5.56"/>
   </edge>
   <edge function="internal" id=":1197558363_0">
      <lane disallow="tram rail_urban rail rail_electric ship" id=":1197558363_0_0" index="0" length="0.10" shape="771.25,361.87 771.26,361.91" speed="5.56"/>
   </edge>
   <edge function="internal" id=":1197558363_1">
      <lane disallow="tram rail_urban rail rail_electric ship" id=":1197558363_1_0" index="0" length="2.41" shape="771.25,361.87 771.78,360.48 772.49,359.89" speed="5.56"/>
   </edge>
   <edge function="internal" id=":1197558363_4">
      <lane id=":1197558363_4_0" index="0" length="2.41" shape="772.49,359.89 773.38,360.10 774.47,361.12" speed="5.56"/>
   </edge>
   <edge function="internal" id=":1197558363_2">
      <lane disallow="tram rail_urban rail rail_electric ship" id=":1197558363_2_0" index="0" length="0.10" shape="774.46,361.11 774.47,361.12" speed="5.56"/>
   </edge>
   <edge function="internal" id=":1197558363_3">
      <lane disallow="tram rail_urban rail rail_electric ship" id=":1197558363_3_0" index="0" length="2.41" shape="774.46,361.11 773.96,362.51 773.26,363.11" speed="5.56"/>
   </edge>
   <edge function="internal" id=":1197558363_5">
      <lane id=":1197558363_5_0" index="0" length="2.41" shape="773.26,363.11 772.36,362.91 771.26,361.91" speed="5.56"/>
   </edge>
   <edge function="internal" id=":1197558427_0">
      <lane disallow="tram rail_urban rail rail_electric ship" id=":1197558427_0_0" index="0" length="0.10" shape="769.31,387.61 769.34,387.60" speed="2.78"/>
   </edge>
   <edge function="internal" id=":1197558427_1">
      <lane disallow="tram rail_urban rail rail_electric ship" id=":1197558427_1_0" index="0" length="2.41" shape="769.31,387.61 767.90,387.12 767.30,386.42" speed="2.78"/>
   </edge>
   <edge function="internal" id=":1197558427_4">
      <lane id=":1197558427_4_0" index="0" length="2.41" shape="767.30,386.42 767.49,385.52 768.48,384.41" speed="2.78"/>
   </edge>
   <edge function="internal" id=":1197558427_2">
      <lane disallow="tram rail_urban rail rail_electric ship" id=":1197558427_2_0" index="0" length="0.10" shape="768.47,384.42 768.48,384.41" speed="2.78"/>
   </edge>
   <edge function="internal" id=":1197558427_3">
      <lane disallow="tram rail_urban rail rail_electric ship" id=":1197558427_3_0" index="0" length="2.41" shape="768.47,384.42 769.88,384.88 770.50,385.57" speed="2.78"/>
   </edge>
   <edge function="internal" id=":1197558427_5">
      <lane id=":1197558427_5_0" index="0" length="2.41" shape="770.50,385.57 770.32,386.48 769.34,387.60" speed="2.78"/>
   </edge>
   <edge function="internal" id=":1197558835_0">
      <lane disallow="tram rail_urban rail rail_electric ship" id=":1197558835_0_0" index="0" length="0.37" shape="710.53,376.80 710.39,377.14" speed="5.56"/>
   </edge>
   <edge function="internal" id=":1197558835_1">
      <lane disallow="tram rail_urban rail rail_electric ship" id=":1197558835_1_0" index="0" length="2.41" shape="710.53,376.80 709.22,377.49 708.29,377.46" speed="5.56"/>
   </edge>
   <edge function="internal" id=":1197558835_4">
      <lane id=":1197558835_4_0" index="0" length="2.41" shape="708.29,377.46 707.76,376.71 707.63,375.23" speed="5.56"/>
   </edge>
   <edge function="internal" id=":1197558835_2">
      <lane disallow="tram rail_urban rail rail_electric ship" id=":1197558835_2_0" index="0" length="1.13" shape="707.21,376.28 707.63,375.23" speed="5.56"/>
   </edge>
   <edge function="internal" id=":1197558835_3">
      <lane disallow="tram rail_urban rail rail_electric ship" id=":1197558835_3_0" index="0" length="2.41" shape="707.21,376.28 708.33,375.30 709.23,375.12" speed="5.56"/>
   </edge>
   <edge function="internal" id=":1197558835_5">
      <lane id=":1197558835_5_0" index="0" length="2.41" shape="709.23,375.12 709.92,375.73 710.39,377.14" speed="5.56"/>
   </edge>
   <edge function="internal" id=":1197558978_0">
      <lane disallow="tram rail_urban rail rail_electric ship" id=":1197558978_0_0" index="0" length="2.12" shape="733.32,396.01 731.21,396.16" speed="2.78"/>
   </edge>
   <edge function="internal" id=":1197558978_1">
      <lane disallow="tram rail_urban rail rail_electric ship" id=":1197558978_1_0" index="0" length="2.41" shape="733.32,396.01 731.90,395.57 731.27,394.90" speed="2.78"/>
   </edge>
   <edge function="internal" id=":1197558978_4">
      <lane id=":1197558978_4_0" index="0" length="2.41" shape="731.27,394.90 731.43,393.99 732.39,392.85" speed="2.78"/>
   </edge>
   <edge function="internal" id=":1197558978_2">
      <lane disallow="tram rail_urban rail rail_electric ship" id=":1197558978_2_0" index="0" length="0.69" shape="731.70,392.89 732.39,392.85" speed="2.78"/>
   </edge>
   <edge function="internal" id=":1197558978_3">
      <lane disallow="tram rail_urban rail rail_electric ship" id=":1197558978_3_0" index="0" length="2.05" shape="731.70,392.89 732.80,393.89 732.97,394.43" speed="2.78"/>
   </edge>
   <edge function="internal" id=":1197558978_5">
      <lane id=":1197558978_5_0" index="0" length="2.77" shape="732.97,394.43 733.08,394.77 732.55,395.53 731.21,396.16" speed="2.78"/>
   </edge>
   <edge function="internal" id=":1197595197_0">
      <lane disallow="tram rail_urban rail rail_electric ship" id=":1197595197_0_0" index="0" length="4.84" shape="804.51,523.99 803.78,522.95 802.85,522.32 801.74,522.08 800.44,522.25" speed="9.72"/>
   </edge>
   <edge function="internal" id=":1197595197_1">
      <lane disallow="tram rail_urban rail rail_electric ship" id=":1197595197_1_0" index="0" length="8.81" shape="804.51,523.99 802.10,515.51" speed="9.72"/>
   </edge>
   <edge function="internal" id=":1197595197_2">
      <lane disallow="tram rail_urban rail rail_electric ship" id=":1197595197_2_0" index="0" length="4.82" shape="804.51,523.99 804.68,522.51 805.22,521.76 806.14,521.75 807.44,522.47" speed="13.89"/>
   </edge>
   <edge function="internal" id=":1197595197_3">
      <lane disallow="tram rail_urban rail rail_electric ship" id=":1197595197_3_0" index="0" length="7.52" shape="805.39,515.24 807.44,522.47" speed="9.72"/>
   </edge>
   <edge function="internal" id=":1197595197_4">
      <lane disallow="tram rail_urban rail rail_electric ship" id=":1197595197_4_0" index="0" length="9.46" shape="805.39,515.24 805.25,517.77 804.38,519.78 802.77,521.28 800.44,522.25" speed="5.56"/>
   </edge>
   <edge function="internal" id=":1197595197_5">
      <lane disallow="tram rail_urban rail rail_electric ship" id=":1197595197_5_0" index="0" length="4.82" shape="805.39,515.24 804.67,516.54 803.88,517.02 803.02,516.67 802.10,515.51" speed="5.56"/>
   </edge>
   <edge function="internal" id=":1197595197_6">
      <lane disallow="tram rail_urban rail rail_electric ship" id=":1197595197_6_0" index="0" length="4.79" shape="799.59,519.06 800.78,518.57 801.59,517.81 802.03,516.79 802.10,515.51" speed="5.56"/>
   </edge>
   <edge function="internal" id=":1197595197_7">
      <lane disallow="tram rail_urban rail rail_electric ship" id=":1197595197_7_0" index="0" length="9.36" shape="799.59,519.06 802.09,518.74 804.23,519.20 806.02,520.45 807.44,522.47" speed="9.72"/>
   </edge>
   <edge function="internal" id=":1197595197_8">
      <lane disallow="tram rail_urban rail rail_electric ship" id=":1197595197_8_0" index="0" length="4.82" shape="799.59,519.06 801.00,519.54 801.61,520.24 801.42,521.14 800.44,522.25" speed="5.56"/>
   </edge>
   <edge function="internal" id=":1197595324_0">
      <lane disallow="tram rail_urban rail rail_electric ship" id=":1197595324_0_0" index="0" length="7.69" shape="780.66,529.57 778.94,522.08" speed="5.56"/>
   </edge>
   <edge function="internal" id=":1197595324_1">
      <lane disallow="tram rail_urban rail rail_electric ship" id=":1197595324_1_0" index="0" length="9.44" shape="780.66,529.57 780.91,527.11 781.86,525.14 783.53,523.67 785.90,522.70" speed="5.56"/>
   </edge>
   <edge function="internal" id=":1197595324_2">
      <lane disallow="tram rail_urban rail rail_electric ship" id=":1197595324_2_0" index="0" length="4.82" shape="780.66,529.57 781.44,528.30 782.25,527.86 783.09,528.24 783.96,529.44" speed="5.56"/>
   </edge>
   <edge function="internal" id=":1197595324_3">
      <lane disallow="tram rail_urban rail rail_electric ship" id=":1197595324_3_0" index="0" length="4.93" shape="786.74,525.89 785.48,526.40 784.60,527.16 784.09,528.17 783.96,529.44" speed="5.56"/>
   </edge>
   <edge function="internal" id=":1197595324_4">
      <lane disallow="tram rail_urban rail rail_electric ship" id=":1197595324_4_0" index="0" length="9.62" shape="786.74,525.89 784.17,526.21 782.02,525.67 780.27,524.30 778.94,522.08" speed="5.56"/>
   </edge>
   <edge function="internal" id=":1197595324_5">
      <lane disallow="tram rail_urban rail rail_electric ship" id=":1197595324_5_0" index="0" length="4.82" shape="786.74,525.89 785.34,525.41 784.72,524.72 784.91,523.82 785.90,522.70" speed="5.56"/>
   </edge>
   <edge function="internal" id=":1197595324_6">
      <lane disallow="tram rail_urban rail rail_electric ship" id=":1197595324_6_0" index="0" length="4.83" shape="781.98,520.79 782.64,521.90 783.52,522.59 784.60,522.86 785.90,522.70" speed="5.56"/>
   </edge>
   <edge function="internal" id=":1197595324_7">
      <lane disallow="tram rail_urban rail rail_electric ship" id=":1197595324_7_0" index="0" length="8.88" shape="781.98,520.79 783.96,529.44" speed="5.56"/>
   </edge>
   <edge function="internal" id=":1197595324_8">
      <lane disallow="tram rail_urban rail rail_electric ship" id=":1197595324_8_0" index="0" length="4.82" shape="781.98,520.79 781.70,522.25 781.10,522.95 780.18,522.89 778.94,522.08" speed="5.56"/>
   </edge>
   <edge function="internal" id=":1436402930_0">
      <lane allow="delivery bicycle pedestrian" id=":1436402930_0_0" index="0" length="6.83" shape="456.99,297.08 455.75,296.79 454.31,297.07 452.69,297.89 450.88,299.27" speed="5.56"/>
   </edge>
   <edge function="internal" id=":1436402930_1">
      <lane disallow="tram rail_urban rail rail_electric ship" id=":1436402930_1_0" index="0" length="9.88" shape="456.99,297.08 448.25,292.47" speed="5.56"/>
   </edge>
   <edge function="internal" id=":1436402930_2">
      <lane disallow="tram rail_urban rail rail_electric ship" id=":1436402930_2_0" index="0" length="2.52" shape="456.99,297.08 456.24,295.79 456.23,294.87 456.32,294.80" speed="5.56"/>
   </edge>
   <edge function="internal" id=":1436402930_9">
      <lane id=":1436402930_9_0" index="0" length="2.30" shape="456.32,294.80 456.96,294.31 458.44,294.11" speed="5.56"/>
   </edge>
   <edge function="internal" id=":1436402930_3">
      <lane disallow="tram rail_urban rail rail_electric ship" id=":1436402930_3_0" index="0" length="9.72" shape="449.84,289.58 458.44,294.11" speed="5.56"/>
   </edge>
   <edge function="internal" id=":1436402930_4">
      <lane allow="delivery bicycle pedestrian" id=":1436402930_4_0" index="0" length="5.48" shape="449.84,289.58 452.70,291.73 453.53,293.45" speed="5.56"/>
   </edge>
   <edge function="internal" id=":1436402930_5">
      <lane disallow="tram rail_urban rail rail_electric ship" id=":1436402930_5_0" index="0" length="2.41" shape="449.84,289.58 450.53,290.90 450.49,291.82" speed="5.56"/>
   </edge>
   <edge function="internal" id=":1436402930_10">
      <lane id=":1436402930_10_0" index="0" length="6.84" shape="453.53,293.45 453.83,294.06 453.22,296.57 450.88,299.27" speed="5.56"/>
   </edge>
   <edge function="internal" id=":1436402930_11">
      <lane id=":1436402930_11_0" index="0" length="2.41" shape="450.49,291.82 449.73,292.34 448.25,292.47" speed="5.56"/>
   </edge>
   <edge function="internal" id=":1436402930_6">
      <lane disallow="tram rail_urban rail rail_electric ship" id=":1436402930_6_0" index="0" length="5.49" shape="448.71,296.79 449.75,295.58 450.02,294.46 449.52,293.42 448.25,292.47" speed="5.56"/>
   </edge>
   <edge function="internal" id=":1436402930_7">
      <lane disallow="tram rail_urban rail rail_electric ship" id=":1436402930_7_0" index="0" length="10.69" shape="448.71,296.79 451.37,294.84 453.87,293.74 456.23,293.50 458.44,294.11" speed="5.56"/>
   </edge>
   <edge function="internal" id=":1436402930_8">
      <lane allow="delivery bicycle pedestrian" id=":1436402930_8_0" index="0" length="4.82" shape="448.71,296.79 450.19,296.60 451.04,296.95 451.27,297.84 450.88,299.27" speed="5.56"/>
   </edge>
   <edge function="internal" id=":1436402998_0">
      <lane disallow="tram rail_urban rail rail_electric ship" id=":1436402998_0_0" index="0" length="48.17" shape="457.22,358.79 448.21,355.58 449.10,351.10 459.87,345.33 480.53,338.29" speed="5.56"/>
   </edge>
   <edge function="internal" id=":1436402998_1">
      <lane disallow="tram rail_urban rail rail_electric ship" id=":1436402998_1_0" index="0" length="6.19" shape="457.22,358.79 458.03,355.78 459.40,354.41 460.53,354.57" speed="5.56"/>
   </edge>
   <edge function="internal" id=":1436402998_4">
      <lane id=":1436402998_4_0" index="0" length="3.90" shape="460.53,354.57 461.31,354.68 463.77,356.59" speed="5.56"/>
   </edge>
   <edge function="internal" id=":1436402998_2">
      <lane disallow="tram rail_urban rail rail_electric ship" id=":1436402998_2_0" index="0" length="34.44" shape="444.86,327.80 463.77,356.59" speed="5.56"/>
   </edge>
   <edge function="internal" id=":1436402998_3">
      <lane disallow="tram rail_urban rail rail_electric ship" id=":1436402998_3_0" index="0" length="27.15" shape="444.86,327.80 457.71,317.05 467.94,315.21" speed="5.56"/>
   </edge>
   <edge function="internal" id=":1436402998_5">
      <lane id=":1436402998_5_0" index="0" length="27.15" shape="467.94,315.21 475.54,322.29 480.53,338.29" speed="5.56"/>
   </edge>
   <edge function="internal" id=":1436403028_0">
      <lane allow="delivery bicycle pedestrian" id=":1436403028_0_0" index="0" length="8.38" shape="427.33,336.55 419.31,334.12" speed="5.56"/>
   </edge>
   <edge function="internal" id=":1436403028_1">
      <lane allow="delivery bicycle pedestrian" id=":1436403028_1_0" index="0" length="10.63" shape="427.33,336.55 424.77,334.58 423.26,332.46 422.81,330.19 423.40,327.77" speed="5.56"/>
   </edge>
   <edge function="internal" id=":1436403028_2">
      <lane disallow="tram rail_urban rail rail_electric ship" id=":1436403028_2_0" index="0" length="4.82" shape="427.33,336.55 426.71,335.20 426.79,334.28 427.57,333.79 429.06,333.74" speed="5.56"/>
   </edge>
   <edge function="internal" id=":1436403028_3">
      <lane disallow="tram rail_urban rail rail_electric ship" id=":1436403028_3_0" index="0" length="7.62" shape="427.32,327.10 426.70,329.15 426.78,330.94 427.56,332.47 429.06,333.74" speed="5.56"/>
   </edge>
   <edge function="internal" id=":1436403028_4">
      <lane allow="delivery bicycle pedestrian" id=":1436403028_4_0" index="0" length="11.43" shape="427.32,327.10 425.50,330.48 423.55,332.78 421.49,333.99 419.31,334.12" speed="5.56"/>
   </edge>
   <edge function="internal" id=":1436403028_5">
      <lane allow="delivery bicycle pedestrian" id=":1436403028_5_0" index="0" length="5.81" shape="427.32,327.10 426.60,328.74 425.70,329.40 424.63,329.08 423.40,327.77" speed="5.56"/>
   </edge>
   <edge function="internal" id=":1436403028_6">
      <lane allow="delivery bicycle pedestrian" id=":1436403028_6_0" index="0" length="5.00" shape="419.92,330.87 420.86,330.82 421.75,330.28 422.60,329.27 423.40,327.77" speed="5.56"/>
   </edge>
   <edge function="internal" id=":1436403028_7">
      <lane disallow="tram rail_urban rail rail_electric ship" id=":1436403028_7_0" index="0" length="9.58" shape="419.92,330.87 429.06,333.74" speed="5.56"/>
   </edge>
   <edge function="internal" id=":1436403028_8">
      <lane allow="delivery bicycle pedestrian" id=":1436403028_8_0" index="0" length="4.82" shape="419.92,330.87 420.98,331.91 421.24,332.80 420.68,333.54 419.31,334.12" speed="5.56"/>
   </edge>
   <edge function="internal" id=":1436403085_0">
      <lane disallow="tram rail_urban rail rail_electric ship" id=":1436403085_0_0" index="0" length="11.68" shape="485.55,355.80 482.41,355.72 480.01,356.52 477.76,357.99 475.09,359.95" speed="5.56"/>
   </edge>
   <edge function="internal" id=":1436403085_1">
      <lane disallow="tram rail_urban rail rail_electric ship" id=":1436403085_1_0" index="0" length="13.41" shape="485.55,355.80 482.10,355.22 478.96,354.61 475.82,353.94 472.40,353.19" speed="5.56"/>
   </edge>
   <edge function="internal" id=":1436403085_2">
      <lane disallow="tram rail_urban rail rail_electric ship" id=":1436403085_2_0" index="0" length="13.87" shape="485.55,355.80 482.22,354.63 479.35,352.77 476.47,350.94 473.13,349.86" speed="5.56"/>
   </edge>
   <edge function="internal" id=":1436403085_3">
      <lane disallow="tram rail_urban rail rail_electric ship" id=":1436403085_3_0" index="0" length="5.01" shape="485.55,355.80 484.17,355.11 483.64,354.31 483.97,353.40 485.14,352.40" speed="5.56"/>
   </edge>
   <edge function="internal" id=":1436403085_4">
      <lane disallow="tram rail_urban rail rail_electric ship" id=":1436403085_4_0" index="0" length="4.57" shape="483.64,348.52 483.61,350.11 483.84,351.28 484.35,352.05 485.14,352.40" speed="5.56"/>
   </edge>
   <edge function="internal" id=":1436403085_5">
      <lane disallow="tram rail_urban rail rail_electric ship" id=":1436403085_5_0" index="0" length="14.70" shape="483.64,348.52 482.89,351.44 481.22,354.33 478.61,357.16 475.09,359.95" speed="5.56"/>
   </edge>
   <edge function="internal" id=":1436403085_6">
      <lane disallow="tram rail_urban rail rail_electric ship" id=":1436403085_6_0" index="0" length="14.05" shape="483.64,348.52 482.69,351.43 480.49,353.18 477.06,353.77 472.40,353.19" speed="5.56"/>
   </edge>
   <edge function="internal" id=":1436403085_7">
      <lane disallow="tram rail_urban rail rail_electric ship" id=":1436403085_7_0" index="0" length="15.48" shape="483.64,348.52 481.52,352.80 479.06,354.45 476.26,353.47 473.13,349.86" speed="5.56"/>
   </edge>
   <edge function="internal" id=":1436403085_8">
      <lane disallow="tram rail_urban rail rail_electric ship" id=":1436403085_8_0" index="0" length="1.16" shape="473.11,349.97 472.68,349.87 472.55,349.82 472.70,349.81 473.13,349.86" speed="5.56"/>
   </edge>
   <edge function="internal" id=":1436403085_9">
      <lane disallow="tram rail_urban rail rail_electric ship" id=":1436403085_9_0" index="0" length="12.28" shape="473.11,349.97 476.35,350.69 479.10,351.29 481.86,351.84 485.14,352.40" speed="5.56"/>
   </edge>
   <edge function="internal" id=":1436403085_10">
      <lane disallow="tram rail_urban rail rail_electric ship" id=":1436403085_10_0" index="0" length="16.00" shape="473.11,349.97 477.90,351.61 479.82,353.83 478.89,356.61 475.09,359.95" speed="5.56"/>
   </edge>
   <edge function="internal" id=":1436403085_11">
      <lane disallow="tram rail_urban rail rail_electric ship" id=":1436403085_11_0" index="0" length="4.82" shape="473.11,349.97 474.14,351.04 474.37,351.93 473.79,352.65 472.40,353.19" speed="5.56"/>
   </edge>
   <edge function="internal" id=":1436403085_12">
      <lane disallow="tram rail_urban rail rail_electric ship" id=":1436403085_12_0" index="0" length="6.49" shape="473.20,357.24 474.75,355.88 475.13,354.76 474.34,353.86 472.40,353.19" speed="5.56"/>
   </edge>
   <edge function="internal" id=":1436403085_13">
      <lane disallow="tram rail_urban rail rail_electric ship" id=":1436403085_13_0" index="0" length="12.26" shape="473.20,357.24 476.58,354.44 477.69,352.27 476.54,350.74 473.13,349.86" speed="5.56"/>
   </edge>
   <edge function="internal" id=":1436403085_14">
      <lane disallow="tram rail_urban rail rail_electric ship" id=":1436403085_14_0" index="0" length="13.27" shape="473.20,357.24 476.11,355.17 478.86,353.46 481.77,352.43 485.14,352.40" speed="5.56"/>
   </edge>
   <edge function="internal" id=":1436403085_15">
      <lane disallow="tram rail_urban rail rail_electric ship" id=":1436403085_15_0" index="0" length="4.82" shape="473.20,357.24 474.69,357.22 475.50,357.66 475.63,358.57 475.09,359.95" speed="5.56"/>
   </edge>
   <edge function="internal" id=":1449511594_0">
      <lane allow="delivery bicycle pedestrian" id=":1449511594_0_0" index="0" length="4.82" shape="831.12,621.87 831.87,620.59 832.67,620.13 833.52,620.49 834.41,621.68" speed="5.56"/>
   </edge>
   <edge function="internal" id=":1540073634_0">
      <lane disallow="tram rail_urban rail rail_electric ship" id=":1540073634_0_0" index="0" length="0.45" shape="212.17,313.63 211.73,313.59" speed="13.89"/>
   </edge>
   <edge function="internal" id=":1540073634_1">
      <lane disallow="tram rail_urban rail rail_electric ship" id=":1540073634_1_0" index="0" length="2.41" shape="212.17,313.63 211.15,312.55 210.93,311.65" speed="13.89"/>
   </edge>
   <edge function="internal" id=":1540073634_4">
      <lane id=":1540073634_4_0" index="0" length="2.41" shape="210.93,311.65 211.51,310.94 212.90,310.41" speed="13.89"/>
   </edge>
   <edge function="internal" id=":1540073634_2">
      <lane disallow="tram rail_urban rail rail_electric ship" id=":1540073634_2_0" index="0" length="1.37" shape="211.54,310.29 212.90,310.41" speed="13.89"/>
   </edge>
   <edge function="internal" id=":1540073634_3">
      <lane disallow="tram rail_urban rail rail_electric ship" id=":1540073634_3_0" index="0" length="2.41" shape="211.54,310.29 212.82,311.05 213.28,311.85" speed="13.89"/>
   </edge>
   <edge function="internal" id=":1540073634_5">
      <lane id=":1540073634_5_0" index="0" length="2.41" shape="213.28,311.85 212.92,312.69 211.73,313.59" speed="13.89"/>
   </edge>
   <edge function="internal" id=":1540073659_0">
      <lane disallow="tram rail_urban rail rail_electric ship" id=":1540073659_0_0" index="0" length="4.82" shape="192.82,313.94 191.58,313.11 191.17,312.28 191.59,311.46 192.83,310.64" speed="13.89"/>
   </edge>
   <edge function="internal" id=":1782809485_0">