<?xml version="1.0" encoding="utf-8"?><!-- generated on 10/11/17 17:51:38 by SUMO polyconvert Version 0.25.0
<?xml version="1.0" encoding="UTF-8"?>

<configuration xmlns:xsi="http://www.w3.org/2001/XMLSchema-instance" xsi:noNamespaceSchemaLocation="http://sumo.dlr.de/xsd/polyconvertConfiguration.xsd">

    <input>
        <net-file value="EM_Endingen_rural_800.net.xml"/>
        <osm-files value="EM_Endingen_rural_800.osm"/>
        <type-file value="osmPolyconvert.typ.xml"/>
    </input>

    <output>
        <output-file value="EM_Endingen_rural_800.poly.xml"/>
    </output>

    <projection>
        <proj.utm value="true"/>
    </projection>

    <processing>
        <poi-layer-offset value="5"/>
    </processing>

</configuration>
-->
<additional>
   <location convBoundary="-11.44,-7.45,869.31,848.47" netOffset="-403038.48,-5332400.24" origBoundary="7.696506,48.137500,7.708198,48.145100" projParameter="+proj=utm +zone=32 +ellps=WGS84 +datum=WGS84 +units=m +no_defs"/>
   <poly color="red" fill="1" id="103731045" layer="-1.00" shape="690.76,100.76 689.32,91.49 704.25,89.20 705.68,98.45 690.76,100.76" type="building"/>
   <poly color="237,199,199" fill="1" id="103731048" layer="-1.00" shape="731.04,390.06 726.09,391.38 726.10,392.12 724.43,392.58 723.75,390.99 724.84,390.61 723.20,384.30 721.60,384.76 720.91,382.80 722.36,382.42 721.98,381.69 728.14,380.27 726.99,375.88 751.99,368.94 751.25,366.66 764.30,363.05 765.72,368.23 768.29,368.74 770.55,371.06 771.71,374.80 772.16,378.27 772.15,380.46 770.96,383.10 768.51,384.28 768.89,386.01 757.51,389.21 757.21,387.28 732.16,394.63 731.04,390.06" type="amenity"/>
   <poly color="red" fill="1" id="103731048#1" layer="-1.00" shape="731.04,390.06 726.09,391.38 726.10,392.12 724.43,392.58 723.75,390.99 724.84,390.61 723.20,384.30 721.60,384.76 720.91,382.80 722.36,382.42 721.98,381.69 728.14,380.27 726.99,375.88 751.99,368.94 751.25,366.66 764.30,363.05 765.72,368.23 768.29,368.74 770.55,371.06 771.71,374.80 772.16,378.27 772.15,380.46 770.96,383.10 768.51,384.28 768.89,386.01 757.51,389.21 757.21,387.28 732.16,394.63 731.04,390.06" type="building"/>
   <poly color="red" fill="1" id="103731153" layer="-1.00" shape="701.34,305.62 699.03,262.13 717.42,261.15 718.12,274.29 731.69,273.58 730.91,258.89 746.62,258.06 748.52,293.89 745.28,294.07 745.49,298.21 735.84,298.72 735.24,287.56 719.25,288.41 720.11,304.62 701.34,305.62" type="building"/>
   <poly color="red" fill="1" id="103735032" layer="-1.00" shape="73.08,737.20 54.33,670.13 100.88,657.19 119.63,724.26 73.08,737.20" type="building"/>
   <poly color="red" fill="1" id="103735040" layer="-1.00" shape="80.20,831.44 78.67,808.04 93.20,807.09 94.73,830.49 80.20,831.44" type="building"/>
   <poly color="red" fill="1" id="103735044" layer="-1.00" shape="630.06,404.95 628.81,396.16 631.13,395.62 631.92,394.34 638.18,393.32 651.20,391.39 655.18,414.75 648.47,416.05 649.37,418.70 647.60,419.82 643.06,422.69 642.28,418.01 632.59,419.74 632.35,418.83 631.60,414.25 631.07,411.06 632.31,410.88 631.43,404.76 630.06,404.95" type="building"/>
   <poly color="237,199,255" fill="1" id="103735044#1" layer="-1.00" shape="630.06,404.95 628.81,396.16 631.13,395.62 631.92,394.34 638.18,393.32 651.20,391.39 655.18,414.75 648.47,416.05 649.37,418.70 647.60,419.82 643.06,422.69 642.28,418.01 632.59,419.74 632.35,418.83 631.60,414.25 631.07,411.06 632.31,410.88 631.43,404.76 630.06,404.95" type="shop"/>
   <poly color="red" fill="0" id="103735055" layer="-1.00" shape="13.06,616.74 9.74,608.29 21.89,603.55 23.00,606.37 30.24,603.55 32.11,608.30 49.73,601.43 54.97,614.78 20.13,628.38 20.74,629.95" type="building"/>
   <poly color="red" fill="1" id="103735429" layer="-1.00" shape="581.90,612.09 609.32,611.50 609.06,599.77 581.65,600.35 581.90,612.09" type="building"/>
   <poly color="red" fill="1" id="103735431" layer="-1.00" shape="551.71,572.69 552.54,553.50 562.43,553.93 561.59,573.12 551.71,572.69" type="building"/>
   <poly color="red" fill="1" id="130407748" layer="-1.00" shape="516.51,476.14 512.61,464.06 519.11,461.98 532.17,457.78 533.04,460.44 536.07,469.86 516.51,476.14" type="building"/>
   <poly color="207,245,201" fill="1" id="130407748#1" layer="-2.00" shape="516.51,476.14 512.61,464.06 519.11,461.98 532.17,457.78 533.04,460.44 536.07,469.86 516.51,476.14" type="tourism"/>
   <poly color="237,199,199" fill="1" id="130407751" layer="-1.00" shape="478.59,432.42 472.78,407.76 483.16,405.33 488.98,429.99 485.40,430.83 478.59,432.42" type="amenity"/>
   <poly color="red" fill="1" id="130407751#1" layer="-1.00" shape="478.59,432.42 472.78,407.76 483.16,405.33 488.98,429.99 485.40,430.83 478.59,432.42" type="building"/>
   <poly color="237,199,199" fill="1" id="130407753" layer="-1.00" shape="444.94,340.09 446.49,328.01 469.75,331.69 470.38,328.83 477.50,329.87 477.37,332.79 476.92,334.44 477.97,335.15 479.51,334.61 481.00,335.51 479.94,336.88 480.90,338.12 482.55,337.61 482.88,339.30 481.58,339.69 481.34,341.60 482.58,341.93 481.56,343.71 480.10,342.66 478.45,344.37 478.77,345.56 477.43,346.31 475.46,345.82 474.94,348.42 467.58,347.51 467.96,343.65 444.94,340.09" type="amenity"/>
   <poly color="red" fill="1" id="130407753#1" layer="-1.00" shape="444.94,340.09 446.49,328.01 469.75,331.69 470.38,328.83 477.50,329.87 477.37,332.79 476.92,334.44 477.97,335.15 479.51,334.61 481.00,335.51 479.94,336.88 480.90,338.12 482.55,337.61 482.88,339.30 481.58,339.69 481.34,341.60 482.58,341.93 481.56,343.71 480.10,342.66 478.45,344.37 478.77,345.56 477.43,346.31 475.46,345.82 474.94,348.42 467.58,347.51 467.96,343.65 444.94,340.09" type="building"/>
   <poly color="red" fill="1" id="130407754" layer="-1.00" shape="501.64,422.21 516.05,417.32 517.54,421.68 527.94,418.15 531.32,428.04 521.63,431.33 522.22,433.10 532.37,429.66 534.54,435.99 525.78,438.96 527.59,443.88 514.61,448.07 510.93,449.43 506.62,439.15 509.49,437.86 508.81,436.92 501.64,422.21" type="building"/>
   <poly color="red" fill="1" id="130407755" layer="-1.00" shape="517.06,455.64 514.61,448.07 527.59,443.88 529.75,449.99 530.12,451.44 517.06,455.64" type="building"/>
   <poly color="red" fill="1" id="130407758" layer="-1.00" shape="519.11,461.98 517.06,455.64 530.12,451.44 531.39,455.35 532.17,457.78 519.11,461.98" type="building"/>
   <poly color="red" fill="1" id="130408485" layer="-1.00" shape="462.19,315.95 465.13,308.06 479.84,313.52 476.90,321.39 462.19,315.95" type="building"/>
   <poly color="207,245,201" fill="1" id="130408485#1" layer="-2.00" shape="462.19,315.95 465.13,308.06 479.84,313.52 476.90,321.39 462.19,315.95" type="leisure"/>
   <poly color="79,230,125" fill="1" id="130408485#2" layer="-2.00" shape="462.19,315.95 465.13,308.06 479.84,313.52 476.90,321.39 462.19,315.95" type="sport"/>
   <poly color="194,194,130" fill="1" id="140582772" layer="-3.00" shape="785.97,11.36 802.90,66.82 808.07,64.29 815.59,60.61 827.09,58.11 831.43,57.70 838.07,57.05 821.04,17.67 785.97,11.36" type="landuse"/>
   <poly color="194,194,130" fill="0" id="140582774" layer="-3.00" shape="831.08,16.28 845.21,40.41 852.79,58.24" type="landuse"/>
   <poly color="194,194,130" fill="0" id="140582785" layer="-3.00" shape="858.44,250.52 856.19,188.89 849.53,116.76 831.43,57.70 827.09,58.11 815.59,60.61 808.07,64.29 812.35,114.19 816.74,195.57 813.78,240.27 810.60,255.37 809.81,259.14 808.73,271.56 811.97,286.03 829.33,345.79 834.47,365.82 840.10,378.33 844.06,382.52" type="landuse"/>
   <poly color="140,196,107" fill="0" id="140582833" layer="-4.00" shape="831.08,16.28 845.21,40.41 852.79,58.24 858.44,250.52 856.19,188.89 849.53,116.76 831.43,57.70 838.07,57.05 821.04,17.67" type="natural"/>
   <poly color="140,196,107" fill="0" id="140582839" layer="-4.00" shape="854.16,420.83 844.44,434.41 836.82,435.76 831.12,414.29 816.03,378.71 802.29,340.75 788.59,285.34 787.90,270.75 786.57,242.41 789.01,184.00 789.41,174.54 784.44,122.59 790.56,123.74 794.05,124.47 792.95,93.14 788.69,62.29 779.41,39.77 772.13,25.09 770.49,6.80 785.97,11.36 802.90,66.82 808.07,64.29 812.35,114.19 816.74,195.57 813.78,240.27 810.60,255.37 809.81,259.14 808.73,271.56 811.97,286.03 829.33,345.79 834.47,365.82 840.10,378.33 844.06,382.52" type="natural"/>
   <poly color="140,196,107" fill="1" id="167407202" layer="-4.00" shape="165.35,330.09 130.37,329.99 97.17,332.06 74.51,336.17 65.42,338.24 60.74,339.30 47.08,342.73 34.13,344.02 26.45,343.33 23.07,339.76 19.24,335.54 13.58,317.33 8.59,301.31 58.91,304.10 96.48,307.31 111.01,310.70 123.94,314.64 141.82,320.12 152.59,322.60 161.48,322.34 166.61,322.12 167.06,319.32 151.67,319.19 144.02,316.93 141.76,316.27 107.29,306.06 91.61,304.40 7.76,295.98 3.90,284.59 2.03,279.06 0.08,271.61 0.21,266.80 2.39,262.06 29.13,275.01 56.64,281.58 116.41,293.81 168.15,312.50 192.82,312.28 148.82,297.44 120.00,287.38 105.54,283.99 71.02,275.88 61.66,273.68 38.52,268.07 5.67,252.69 -2.73,246.53 -6.54,240.85 -1.84,260.01 -4.01,265.58 -3.91,271.33 -3.52,276.62 10.07,320.36 14.76,333.70 19.74,342.55 24.29,345.46 30.04,346.69 35.21,346.36 47.72,344.36 62.83,341.28 76.52,337.93 95.84,334.25 117.63,333.18 165.11,331.59 165.35,330.09" type="natural"/>
   <poly color="red" fill="1" id="197595865" layer="-1.00" shape="497.40,410.18 493.43,399.88 503.95,398.88 511.37,397.40 513.47,406.56 497.40,410.18" type="building"/>
   <poly color="red" fill="1" id="197595884" layer="-1.00" shape="501.64,422.21 516.05,417.32 517.99,416.51 515.48,411.00 513.47,406.56 497.40,410.18 501.64,422.21" type="building"/>
   <poly color="red" fill="1" id="197690744" layer="-1.00" shape="366.10,532.75 367.48,537.01 368.40,539.84 375.67,537.49 374.70,534.51 373.37,530.41 371.31,531.08 366.10,532.75" type="building"/>
   <poly color="128,255,128" fill="1" id="197690744#1" layer="-1.00" shape="366.10,532.75 367.48,537.01 368.40,539.84 375.67,537.49 374.70,534.51 373.37,530.41 371.31,531.08 366.10,532.75" type="historic"/>
   <poly color="207,245,201" fill="1" id="197690744#2" layer="-2.00" shape="366.10,532.75 367.48,537.01 368.40,539.84 375.67,537.49 374.70,534.51 373.37,530.41 371.31,531.08 366.10,532.75" type="tourism"/>
   <poly color="red" fill="1" id="197690749" layer="-1.00" shape="366.10,532.75 358.80,510.73 363.83,509.31 371.31,531.08 366.10,532.75" type="building"/>
   <poly color="red" fill="1" id="197690761" layer="-1.00" shape="358.80,510.73 354.21,494.23 360.95,493.67 363.83,509.31 358.80,510.73" type="building"/>
   <poly color="red" fill="1" id="197691205" layer="-1.00" shape="536.25,310.71 533.43,298.73 547.01,295.55 549.83,307.53 536.25,310.71" type="building"/>
   <poly color="red" fill="1" id="197693947" layer="-1.00" shape="374.01,556.73 369.59,542.07 388.64,536.35 392.25,548.38 382.95,551.16 383.75,553.81 374.01,556.73" type="building"/>
   <poly color="red" fill="1" id="197693958" layer="-1.00" shape="395.01,548.25 390.63,534.70 402.03,531.64 405.98,541.73 406.85,544.44 395.01,548.25" type="building"/>
   <poly color="red" fill="1" id="197701767" layer="-1.00" shape="619.00,485.91 627.10,485.13 628.69,484.97 630.18,484.82 630.77,490.85 635.77,490.36 635.60,487.05 635.25,484.07 634.07,474.26 628.95,474.76 618.01,475.82 619.00,485.91" type="building"/>
   <poly color="red" fill="1" id="197701782" layer="-1.00" shape="577.07,569.72 576.56,561.76 580.25,561.53 580.76,569.48 577.07,569.72" type="building"/>
   <poly color="red" fill="1" id="197701786" layer="-1.00" shape="630.96,551.75 632.49,559.11 626.03,560.45 624.50,553.08 630.96,551.75" type="building"/>
   <poly color="red" fill="1" id="197701787" layer="-1.00" shape="568.45,514.08 567.15,495.53 579.05,494.70 580.35,513.25 568.45,514.08" type="building"/>
   <poly color="red" fill="1" id="197701789" layer="-1.00" shape="663.02,535.74 658.38,520.07 669.87,517.57 673.56,530.05 663.02,535.74" type="building"/>
   <poly color="red" fill="1" id="197701790" layer="-1.00" shape="544.47,542.71 544.63,535.78 557.04,536.05 556.89,542.98 544.47,542.71" type="building"/>
   <poly color="red" fill="1" id="197701791" layer="-1.00" shape="485.61,573.30 478.90,574.04 478.11,567.00 484.82,566.25 485.61,573.30" type="building"/>
   <poly color="red" fill="1" id="197701793" layer="-1.00" shape="385.83,566.03 384.87,557.40 396.06,555.96 397.16,564.65 385.83,566.03" type="building"/>
   <poly color="red" fill="1" id="197701796" layer="-1.00" shape="385.24,574.29 385.26,567.45 392.56,566.87 392.06,576.66 385.24,574.29" type="building"/>
   <poly color="red" fill="1" id="197701799" layer="-1.00" shape="482.48,599.13 480.52,586.22 491.55,584.56 493.51,597.47 482.48,599.13" type="building"/>
   <poly color="red" fill="1" id="197701800" layer="-1.00" shape="673.56,550.74 668.83,538.60 677.67,535.17 682.39,547.31 673.56,550.74" type="building"/>
   <poly color="red" fill="1" id="197701801" layer="-1.00" shape="585.60,566.02 583.22,555.24 593.39,553.00 595.77,563.79 585.60,566.02" type="building"/>
   <poly color="red" fill="1" id="197701802" layer="-1.00" shape="630.03,529.44 639.17,523.62 644.31,531.65 635.18,537.47 630.03,529.44" type="building"/>
   <poly color="red" fill="1" id="197701804" layer="-1.00" shape="483.55,607.07 482.48,599.13 493.51,597.47 494.76,605.34 483.55,607.07" type="building"/>
   <poly color="red" fill="1" id="197701805" layer="-1.00" shape="604.41,562.69 597.59,552.92 607.69,545.91 614.83,555.43 604.41,562.69" type="building"/>
   <poly color="red" fill="1" id="197701806" layer="-1.00" shape="581.43,491.78 580.38,479.50 598.61,477.79 599.70,489.82 581.43,491.78" type="building"/>
   <poly color="red" fill="1" id="197701809" layer="-1.00" shape="562.56,578.91 562.38,572.84 568.67,572.64 568.86,578.72 562.56,578.91" type="building"/>
   <poly color="red" fill="1" id="197701814" layer="-1.00" shape="638.38,503.48 636.87,495.16 648.61,493.44 650.15,501.19 638.38,503.48" type="building"/>
   <poly color="red" fill="1" id="197701819" layer="-1.00" shape="629.45,502.69 629.21,495.44 634.43,494.82 634.67,502.07 629.45,502.69" type="building"/>
   <poly color="red" fill="1" id="197701821" layer="-1.00" shape="401.34,598.91 403.39,588.85 416.83,591.57 414.78,601.63 401.34,598.91" type="building"/>
   <poly color="red" fill="1" id="197701837" layer="-1.00" shape="409.41,572.50 409.64,564.14 418.23,564.37 418.01,572.72 409.41,572.50" type="building"/>
   <poly color="red" fill="1" id="197701840" layer="-1.00" shape="440.63,608.52 443.18,597.65 459.48,601.45 456.92,612.32 440.63,608.52" type="building"/>
   <poly color="red" fill="1" id="197701843" layer="-1.00" shape="629.26,525.84 626.81,516.97 635.92,514.46 638.37,523.33 629.26,525.84" type="building"/>
   <poly color="red" fill="1" id="197701844" layer="-1.00" shape="598.61,477.79 609.27,476.87 610.65,488.67 599.70,489.82 598.61,477.79" type="building"/>
   <poly color="red" fill="1" id="197701845" layer="-1.00" shape="401.15,564.21 406.88,563.53 406.27,558.49 400.54,559.19 401.15,564.21" type="building"/>
   <poly color="red" fill="1" id="197701849" layer="-1.00" shape="567.15,495.53 565.86,478.84 577.94,478.05 579.05,494.70 567.15,495.53" type="building"/>
   <poly color="red" fill="1" id="197701850" layer="-1.00" shape="396.06,555.96 400.06,555.46 400.54,559.19 401.15,564.21 397.16,564.65 396.06,555.96" type="building"/>
   <poly color="red" fill="1" id="197701851" layer="-1.00" shape="615.18,540.61 619.84,537.38 625.09,545.57 626.11,546.60 621.57,549.75 615.18,540.61" type="building"/>
   <poly color="red" fill="1" id="197701852" layer="-1.00" shape="580.22,555.86 577.05,541.15 590.20,538.32 593.39,553.00 583.22,555.24 580.22,555.86" type="building"/>
   <poly color="red" fill="1" id="197701853" layer="-1.00" shape="409.23,577.00 409.41,572.50 418.01,572.72 418.03,575.96 418.05,578.42 409.23,577.00" type="building"/>
   <poly color="red" fill="1" id="197701858" layer="-1.00" shape="409.64,564.14 409.68,553.74 418.43,553.86 418.37,557.07 418.23,564.37 409.64,564.14" type="building"/>
   <poly color="red" fill="1" id="197701859" layer="-1.00" shape="629.73,511.91 628.79,502.86 629.45,502.69 634.67,502.07 635.54,511.12 629.73,511.91" type="building"/>
   <poly color="red" fill="1" id="197701860" layer="-1.00" shape="486.78,580.55 485.61,573.30 484.82,566.25 493.92,565.03 495.97,579.22 486.78,580.55" type="building"/>
   <poly color="red" fill="1" id="197701863" layer="-1.00" shape="583.44,520.84 581.18,513.19 591.25,510.23 595.21,523.62 585.14,526.58 583.44,520.84" type="building"/>
   <poly color="red" fill="1" id="197701864" layer="-1.00" shape="372.12,591.41 366.04,574.39 376.40,570.71 381.19,584.14 376.27,585.88 377.55,589.48 372.12,591.41" type="building"/>
   <poly color="red" fill="1" id="197701870" layer="-1.00" shape="574.52,529.48 571.97,520.39 576.85,519.03 577.80,522.42 583.44,520.84 585.14,526.58 574.52,529.48" type="building"/>
   <poly color="red" fill="1" id="197701871" layer="-1.00" shape="625.09,545.57 619.84,537.38 619.18,536.35 630.03,529.44 635.18,537.47 635.94,538.67 625.09,545.57" type="building"/>
   <poly color="red" fill="1" id="197701874" layer="-1.00" shape="662.05,483.05 661.16,479.53 658.77,470.00 664.46,469.09 666.60,482.43 662.05,483.05" type="building"/>
   <poly color="red" fill="1" id="197701878" layer="-1.00" shape="610.65,488.67 617.48,487.88 619.30,487.67 619.00,485.91 618.01,475.82 609.27,476.87 610.65,488.67" type="building"/>
   <poly color="red" fill="1" id="197701879" layer="-1.00" shape="614.12,509.19 614.94,494.38 617.48,487.88 619.30,487.67 619.00,485.91 627.10,485.13 624.94,508.09 614.12,509.19" type="building"/>
   <poly color="red" fill="1" id="197701881" layer="-1.00" shape="381.83,580.51 380.26,575.78 381.18,572.87 385.24,574.29 392.06,576.66 403.90,580.81 401.79,588.27 381.83,580.51" type="building"/>
   <poly color="red" fill="1" id="197701882" layer="-1.00" shape="418.03,575.96 426.36,575.67 424.93,566.78 422.75,556.63 418.37,557.07 418.23,564.37 418.01,572.72 418.03,575.96" type="building"/>
   <poly color="red" fill="1" id="197701883" layer="-1.00" shape="634.07,474.26 633.89,472.75 645.07,471.43 646.78,485.72 639.92,486.53 635.60,487.05 635.25,484.07 634.07,474.26" type="building"/>
   <poly color="red" fill="1" id="197701884" layer="-1.00" shape="653.69,493.06 648.55,472.56 658.77,470.00 661.16,479.53 657.73,480.38 658.95,485.26 660.48,491.37 653.69,493.06" type="building"/>
   <poly color="red" fill="1" id="197701885" layer="-1.00" shape="640.55,514.61 638.38,503.48 650.15,501.19 651.13,506.16 653.29,505.52 654.49,510.69 654.63,511.87 640.55,514.61" type="building"/>
   <poly color="red" fill="1" id="197701887" layer="-1.00" shape="636.95,494.08 636.27,488.75 640.14,488.27 639.92,486.53 646.78,485.72 647.66,485.69 648.54,492.63 636.95,494.08" type="building"/>
   <poly color="red" fill="1" id="197701892" layer="-1.00" shape="658.95,485.26 662.38,484.40 662.05,483.05 666.60,482.43 668.68,493.12 663.33,493.97 662.55,490.86 660.48,491.37 658.95,485.26" type="building"/>
   <poly color="red" fill="1" id="197701893" layer="-1.00" shape="607.69,545.91 606.61,544.47 613.82,539.09 615.18,540.61 621.57,549.75 622.68,550.92 615.48,556.29 614.83,555.43 607.69,545.91" type="building"/>
   <poly color="red" fill="1" id="197701900" layer="-1.00" shape="656.94,515.51 656.14,512.03 657.69,511.67 657.32,510.04 654.49,510.69 653.29,505.52 668.04,502.10 670.43,512.39 656.94,515.51" type="building"/>
   <poly color="red" fill="1" id="199278128" layer="-1.00" shape="-5.06,408.02" type="building"/>
   <poly color="red" fill="1" id="199278181" layer="-1.00" shape="40.03,149.22 34.19,139.42 41.88,134.87 47.71,144.68 40.03,149.22" type="building"/>
   <poly color="red" fill="1" id="199278446" layer="-1.00" shape="537.07,201.95 534.37,197.64 545.29,190.84 547.99,195.15 537.07,201.95" type="building"/>
   <poly color="red" fill="1" id="199278449" layer="-1.00" shape="614.83,148.69 611.81,143.09 616.85,140.40 619.87,145.99 614.83,148.69" type="building"/>
   <poly color="red" fill="1" id="199278451" layer="-1.00" shape="544.88,212.44 539.43,204.00 553.83,194.76 559.28,203.19 544.88,212.44" type="building"/>
   <poly color="red" fill="1" id="199278453" layer="-1.00" shape="549.77,194.82 547.51,190.03 557.21,185.38 559.70,190.16 549.77,194.82" type="building"/>
   <poly color="red" fill="1" id="199278457" layer="-1.00" shape="624.35,154.87 601.95,165.17 599.43,159.73 621.83,149.43 624.35,154.87" type="building"/>
   <poly color="red" fill="1" id="199278462" layer="-1.00" shape="564.63,199.63 559.70,190.16 557.21,185.38 566.28,180.68 573.71,194.93 564.63,199.63" type="building"/>
   <poly color="red" fill="1" id="199877560" layer="-1.00" shape="290.47,406.48 290.04,402.60 289.44,397.19 287.06,397.45 286.85,395.54 286.62,393.52 294.70,392.63 294.88,394.22 307.93,392.79 309.22,404.41 290.47,406.48" type="building"/>
   <poly color="red" fill="1" id="199877564" layer="-1.00" shape="144.45,686.83 131.66,690.26 128.18,677.36 135.24,675.46 134.24,671.76 139.96,670.22 144.45,686.83" type="building"/>
   <poly color="red" fill="1" id="199877577" layer="-1.00" shape="12.20,396.87 8.44,388.34 19.85,383.34 17.28,377.51 12.86,379.44 9.92,372.76 11.44,372.09 9.98,368.78 19.92,364.42 21.61,368.26 22.72,367.78 31.75,388.31 12.20,396.87" type="building"/>
   <poly color="red" fill="1" id="199877578" layer="-1.00" shape="-3.10,517.26 2.80,514.05 2.10,512.75 7.28,509.94 6.54,508.58 12.60,505.29 15.80,511.22 17.99,515.17 13.53,517.59 14.03,518.51 8.04,521.77 8.76,523.10 2.07,526.74 -3.10,517.26" type="building"/>
   <poly color="red" fill="1" id="199877579" layer="-1.00" shape="-3.73,510.75" type="building"/>
   <poly color="red" fill="1" id="199877580" layer="-1.00" shape="199.97,427.01 199.55,421.90 205.42,421.42 205.84,426.53 199.97,427.01" type="building"/>
   <poly color="red" fill="1" id="199877583" layer="-1.00" shape="47.44,372.50 44.58,352.24 57.51,350.43 60.37,370.69 47.44,372.50" type="building"/>
   <poly color="red" fill="1" id="199877586" layer="-1.00" shape="165.72,375.56 165.24,369.99 178.83,368.83 179.31,374.39 165.72,375.56" type="building"/>
   <poly color="red" fill="1" id="199877587" layer="-1.00" shape="236.43,448.35 234.49,436.31 253.55,433.25 255.49,445.29 236.43,448.35" type="building"/>
   <poly color="red" fill="1" id="199877595" layer="-1.00" shape="4.15,586.58 -2.14,581.36 8.36,568.77 14.65,573.97 4.15,586.58" type="building"/>
   <poly color="red" fill="1" id="199877601" layer="-1.00" shape="262.59,329.77 272.14,328.85 273.30,340.85 263.76,341.77 262.59,329.77" type="building"/>
   <poly color="red" fill="1" id="199877619" layer="-1.00" shape="29.45,520.85 25.51,514.43 32.32,510.29 36.25,516.71 29.45,520.85" type="building"/>
   <poly color="red" fill="1" id="199877631" layer="-1.00" shape="214.20,414.23 213.59,405.04 224.50,404.30 224.76,413.52 214.20,414.23" type="building"/>
   <poly color="red" fill="1" id="199877634" layer="-1.00" shape="112.52,376.51 110.14,355.46 122.33,354.09 124.71,375.14 112.52,376.51" type="building"/>
   <poly color="red" fill="1" id="199877636" layer="-1.00" shape="128.97,369.38 126.45,352.01 141.31,349.86 143.83,367.24 128.97,369.38" type="building"/>
   <poly color="red" fill="1" id="199877637" layer="-1.00" shape="89.53,370.33 88.20,358.50 99.42,357.25 100.74,369.08 89.53,370.33" type="building"/>
   <poly color="red" fill="1" id="199877640" layer="-1.00" shape="170.78,393.20 170.13,383.93 184.09,382.68 184.77,392.22 170.78,393.20" type="building"/>
   <poly color="red" fill="1" id="199877642" layer="-1.00" shape="13.67,492.76 5.48,476.65 17.73,470.46 25.92,486.58 13.67,492.76" type="building"/>
   <poly color="red" fill="1" id="199877652" layer="-1.00" shape="147.75,429.30 146.95,421.88 158.37,420.65 159.17,428.07 157.44,428.26 147.75,429.30" type="building"/>
   <poly color="red" fill="0" id="199877656" layer="-1.00" shape="1.25,416.33 5.54,425.53" type="building"/>
   <poly color="red" fill="1" id="199877660" layer="-1.00" shape="277.32,365.00 281.90,364.69 282.61,375.37 278.04,375.67 277.32,365.00" type="building"/>
   <poly color="red" fill="1" id="199877661" layer="-1.00" shape="27.98,561.06 22.26,555.87 33.61,543.41 39.34,548.61 27.98,561.06" type="building"/>
   <poly color="red" fill="1" id="199877668" layer="-1.00" shape="185.60,412.63 185.07,406.69 192.77,406.00 193.31,411.94 185.60,412.63" type="building"/>
   <poly color="red" fill="1" id="199877681" layer="-1.00" shape="2.85,466.33 -2.52,455.87 11.88,448.52 17.25,458.98 2.85,466.33" type="building"/>
   <poly color="red" fill="1" id="199877682" layer="-1.00" shape="188.46,430.28 187.26,416.07 196.94,415.25 198.15,429.46 188.46,430.28" type="building"/>
   <poly color="red" fill="1" id="199877683" layer="-1.00" shape="227.35,433.97 223.58,434.52 222.77,429.07 226.54,428.51 227.35,433.97" type="building"/>
   <poly color="red" fill="1" id="199877688" layer="-1.00" shape="148.32,352.44 146.01,339.53 163.62,336.39 165.94,349.29 148.32,352.44" type="building"/>
   <poly color="red" fill="1" id="199877692" layer="-1.00" shape="196.94,411.94 196.31,404.48 201.52,404.03 202.15,411.51 196.94,411.94" type="building"/>
   <poly color="red" fill="1" id="199877695" layer="-1.00" shape="192.64,443.46 192.06,437.62 197.85,437.05 198.43,442.89 192.64,443.46" type="building"/>
   <poly color="red" fill="1" id="199877699" layer="-1.00" shape="232.69,379.91 231.55,366.46 247.24,365.14 248.18,376.17 242.58,379.59 232.69,379.91" type="building"/>
   <poly color="red" fill="0" id="199877702" layer="-1.00" shape="-4.35,557.61 1.32,562.57" type="building"/>
   <poly color="red" fill="1" id="199877712" layer="-1.00" shape="265.52,411.41 263.85,400.45 278.24,398.27 279.10,404.19 279.96,409.23 265.52,411.41" type="building"/>
   <poly color="red" fill="1" id="199877722" layer="-1.00" shape="262.59,376.84 261.49,363.79 277.02,362.49 277.32,365.00 278.04,375.67 262.59,376.84" type="building"/>
   <poly color="red" fill="1" id="199877723" layer="-1.00" shape="25.51,514.43 17.22,501.58 27.66,494.84 36.05,507.76 32.32,510.29 25.51,514.43" type="building"/>
   <poly color="red" fill="1" id="199877725" layer="-1.00" shape="169.26,411.24 168.64,402.10 171.58,401.85 182.91,400.97 183.53,410.30 169.26,411.24" type="building"/>
   <poly color="red" fill="1" id="199877730" layer="-1.00" shape="19.11,517.16 17.99,515.17 15.80,511.22 19.57,509.13 22.88,515.09 19.11,517.16" type="building"/>
   <poly color="red" fill="1" id="199877736" layer="-1.00" shape="213.59,405.04 210.73,405.23 210.11,396.04 223.87,395.11 224.50,404.30 213.59,405.04" type="building"/>
   <poly color="red" fill="1" id="199877738" layer="-1.00" shape="171.58,401.85 170.78,393.20 184.77,392.22 185.19,400.80 182.91,400.97 171.58,401.85" type="building"/>
   <poly color="red" fill="1" id="199877741" layer="-1.00" shape="145.23,458.54 144.46,451.42 146.18,451.23 156.09,450.16 156.44,453.34 157.01,453.27 157.43,457.22 145.23,458.54" type="building"/>
   <poly color="red" fill="1" id="199877743" layer="-1.00" shape="213.23,422.48 212.48,414.53 214.20,414.23 224.76,413.52 225.30,421.35 213.23,422.48" type="building"/>
   <poly color="red" fill="1" id="199877746" layer="-1.00" shape="2.88,365.77 -0.99,356.69 6.72,353.41 3.10,344.90 15.88,339.49 23.38,357.09 2.88,365.77" type="building"/>
   <poly color="red" fill="1" id="199877748" layer="-1.00" shape="69.40,369.07 67.25,355.19 73.34,354.24 73.01,352.10 79.77,351.05 82.26,367.08 69.40,369.07" type="building"/>
   <poly color="red" fill="1" id="199877755" layer="-1.00" shape="146.81,443.85 146.03,436.58 147.18,436.45 156.90,435.41 157.32,439.30 158.20,439.21 158.56,442.58 156.43,442.82 146.81,443.85" type="building"/>
   <poly color="red" fill="1" id="199877760" layer="-1.00" shape="179.59,453.78 179.49,452.72 178.56,442.69 183.26,442.25 183.51,444.90 191.09,444.19 191.88,452.64 182.13,453.54 179.59,453.78" type="building"/>
   <poly color="red" fill="1" id="199877764" layer="-1.00" shape="147.18,436.45 146.43,429.45 147.75,429.30 157.44,428.26 157.83,431.87 158.70,431.77 159.07,435.17 156.90,435.41 147.18,436.45" type="building"/>
   <poly color="red" fill="1" id="199877766" layer="-1.00" shape="226.20,343.84 224.33,325.81 241.28,324.06 242.45,335.20 244.76,334.96 245.47,341.84 226.20,343.84" type="building"/>
   <poly color="red" fill="1" id="199877768" layer="-1.00" shape="176.90,348.09 176.31,338.51 180.17,338.28 179.30,324.04 191.01,323.33 192.47,347.14 176.90,348.09" type="building"/>
   <poly color="red" fill="1" id="199877771" layer="-1.00" shape="250.61,344.59 249.07,329.42 262.40,328.07 262.59,329.77 263.76,341.77 263.94,343.25 250.61,344.59" type="building"/>
   <poly color="red" fill="1" id="199877774" layer="-1.00" shape="146.18,451.23 145.39,444.01 146.81,443.85 156.43,442.82 156.77,445.95 157.55,445.87 157.99,449.95 156.09,450.16 146.18,451.23" type="building"/>
   <poly color="red" fill="1" id="199877775" layer="-1.00" shape="274.87,442.20 273.25,426.66 282.56,425.69 282.65,426.55 290.01,425.80 291.55,440.47 274.87,442.20" type="building"/>
   <poly color="red" fill="1" id="199877776" layer="-1.00" shape="50.55,579.49 43.11,572.54 46.36,569.08 45.55,568.33 49.90,563.69 58.16,571.40 50.55,579.49" type="building"/>
   <poly color="red" fill="1" id="199877777" layer="-1.00" shape="170.13,383.93 166.34,384.27 165.72,375.56 179.31,374.39 186.34,373.74 187.12,382.41 184.09,382.68 170.13,383.93" type="building"/>
   <poly color="red" fill="1" id="199877778" layer="-1.00" shape="278.24,398.27 278.03,396.81 286.85,395.54 287.06,397.45 289.44,397.19 290.04,402.60 279.10,404.19 278.24,398.27" type="building"/>
   <poly color="red" fill="1" id="199877779" layer="-1.00" shape="-3.54,530.40 -4.05,516.06 -3.10,517.26 2.07,526.74 -3.54,530.40" type="building"/>
   <poly color="red" fill="1" id="199877784" layer="-1.00" shape="51.53,557.92 49.57,554.39 47.54,555.51 44.07,549.24 47.26,547.48 46.01,545.23 51.44,542.23 58.12,554.29 51.53,557.92" type="building"/>