<?xml version="1.0" encoding="utf-8"?><!-- generated on 10/11/17 17:51:45 by SUMO netconvert Version 0.25.0
<?xml version="1.0" encoding="UTF-8"?>

<configuration xmlns:xsi="http://www.w3.org/2001/XMLSchema-instance" xsi:noNamespaceSchemaLocation="http://sumo.dlr.de/xsd/netconvertConfiguration.xsd">

    <input>
        <type-files value="osmNetconvert.typ.xml"/>
        <osm-files value="EM_Riegel_rural_800.osm"/>
    </input>

    <output>
        <output-file value="EM_Riegel_rural_800.net.xml"/>
    </output>

    <projection>
        <proj.utm value="true"/>
    </projection>

    <edge_removal>
        <remove-edges.by-type value="highway.track,highway.unsurfaced,highway.raceway,highway.bridleway,highway.path,highway.footway,highway.pedestrian,highway.cycleway,highway.step,highway.steps,highway.stairs,highway.bus_guideway,highway.ford,railway.rail,railway.tram,railway.light_rail,railway.subway,railway.preserved,railway.narrow_gauge,railway.monorail,railway.funicular"/>
    </edge_removal>

</configuration>
-->
<net version="0.25">
   <location convBoundary="0.00,0.00,866.32,832.98" netOffset="-406456.00,-5333377.65" origBoundary="7.742355,48.146701,7.753982,48.154378" projParameter="+proj=utm +zone=32 +ellps=WGS84 +datum=WGS84 +units=m +no_defs"/>
   <type allow="pedestrian" id="highway.bridleway" numLanes="1" oneway="1" priority="1" speed="2.78" width="2.00"/>
   <type allow="bus" id="highway.bus_guideway" numLanes="1" oneway="1" priority="1" speed="8.33"/>
   <type allow="bicycle" id="highway.cycleway" numLanes="1" oneway="0" priority="1" speed="5.56" width="1.00"/>
   <type allow="pedestrian" id="highway.footway" numLanes="1" oneway="1" priority="1" speed="8.33" width="2.00"/>
   <type allow="army" id="highway.ford" numLanes="1" oneway="0" priority="1" speed="2.78"/>
   <type disallow="tram rail_urban rail rail_electric ship" id="highway.living_street" numLanes="1" oneway="0" priority="3" speed="2.78"/>
   <type allow="private emergency authority army vip passenger hov taxi bus coach delivery truck trailer motorcycle evehicle custom1 custom2" id="highway.motorway" numLanes="2" oneway="1" priority="13" speed="44.44"/>
   <type allow="private emergency authority army vip passenger hov taxi bus coach delivery truck trailer motorcycle evehicle custom1 custom2" id="highway.motorway_link" numLanes="1" oneway="1" priority="12" speed="22.22"/>
   <type allow="bicycle pedestrian" id="highway.path" numLanes="1" oneway="1" priority="1" speed="2.78" width="2.00"/>
   <type allow="pedestrian" id="highway.pedestrian" numLanes="1" oneway="1" priority="1" speed="8.33" width="2.00"/>
   <type disallow="tram rail_urban rail rail_electric ship" id="highway.primary" numLanes="2" oneway="0" priority="9" speed="27.78"/>
   <type disallow="tram rail_urban rail rail_electric ship" id="highway.primary_link" numLanes="1" oneway="0" priority="8" speed="22.22"/>
   <type allow="vip" id="highway.raceway" numLanes="2" oneway="0" priority="14" speed="83.33"/>
   <type disallow="tram rail_urban rail rail_electric ship" id="highway.residential" numLanes="1" oneway="0" priority="4" speed="13.89"/>
   <type disallow="tram rail_urban rail rail_electric ship" id="highway.secondary" numLanes="2" oneway="0" priority="7" speed="27.78"/>
   <type disallow="tram rail_urban rail rail_electric ship" id="highway.secondary_link" numLanes="1" oneway="0" priority="6" speed="22.22"/>
   <type allow="delivery bicycle pedestrian" id="highway.service" numLanes="1" oneway="0" priority="2" speed="5.56"/>
   <type disallow="tram rail_urban rail rail_electric ship" id="highway.services" numLanes="1" oneway="0" priority="1" speed="8.33"/>
   <type allow="pedestrian" id="highway.stairs" numLanes="1" oneway="1" priority="1" speed="1.39" width="2.00"/>
   <type allow="pedestrian" id="highway.step" numLanes="1" oneway="1" priority="1" speed="1.39" width="2.00"/>
   <type allow="pedestrian" id="highway.steps" numLanes="1" oneway="1" priority="1" speed="1.39" width="2.00"/>
   <type disallow="tram rail_urban rail rail_electric ship" id="highway.tertiary" numLanes="1" oneway="0" priority="6" speed="22.22"/>
   <type disallow="tram rail_urban rail rail_electric ship" id="highway.tertiary_link" numLanes="1" oneway="0" priority="5" speed="22.22"/>
   <type disallow="tram rail_urban rail rail_electric ship" id="highway.track" numLanes="1" oneway="0" priority="1" speed="5.56"/>
   <type disallow="tram rail_urban rail rail_electric bicycle pedestrian ship" id="highway.trunk" numLanes="2" oneway="0" priority="11" speed="27.78"/>
   <type disallow="tram rail_urban rail rail_electric bicycle pedestrian ship" id="highway.trunk_link" numLanes="1" oneway="0" priority="10" speed="22.22"/>
   <type disallow="tram rail_urban rail rail_electric ship" id="highway.unclassified" numLanes="1" oneway="0" priority="5" speed="13.89"/>
   <type disallow="tram rail_urban rail rail_electric ship" id="highway.unsurfaced" numLanes="1" oneway="0" priority="1" speed="8.33"/>
   <type allow="rail_urban" id="railway.light_rail" numLanes="1" oneway="1" priority="15" speed="27.78"/>
   <type allow="rail" id="railway.preserved" numLanes="1" oneway="1" priority="15" speed="27.78"/>
   <type allow="rail rail_electric" id="railway.rail" numLanes="1" oneway="1" priority="15" speed="83.33"/>
   <type allow="rail_urban" id="railway.subway" numLanes="1" oneway="1" priority="15" speed="27.78"/>
   <type allow="tram" id="railway.tram" numLanes="1" oneway="1" priority="15" speed="13.89"/>
   <edge function="internal" id=":124519876_0">
      <lane disallow="tram rail_urban rail rail_electric ship" id=":124519876_0_0" index="0" length="4.82" shape="807.07,774.05 808.09,775.13 808.31,776.03 807.73,776.74 806.34,777.27" speed="13.89"/>
   </edge>
   <edge function="internal" id=":124519888_0">
      <lane disallow="tram rail_urban rail rail_electric ship" id=":124519888_0_0" index="0" length="5.31" shape="759.34,742.16 758.51,741.22 757.45,740.67 756.15,740.51 754.62,740.74" speed="8.33"/>
   </edge>
   <edge function="internal" id=":124519888_1">
      <lane disallow="tram rail_urban rail rail_electric ship" id=":124519888_1_0" index="0" length="8.96" shape="759.34,742.16 756.09,733.82" speed="8.33"/>
   </edge>
   <edge function="internal" id=":124519888_2">
      <lane disallow="tram rail_urban rail rail_electric ship" id=":124519888_2_0" index="0" length="4.82" shape="759.34,742.16 759.39,740.68 759.87,739.89 760.79,739.81 762.14,740.42" speed="8.33"/>
   </edge>
   <edge function="internal" id=":124519888_3">
      <lane disallow="tram rail_urban rail rail_electric ship" id=":124519888_3_0" index="0" length="7.84" shape="759.32,733.12 762.14,740.42" speed="8.33"/>
   </edge>
   <edge function="internal" id=":124519888_4">
      <lane disallow="tram rail_urban rail rail_electric ship" id=":124519888_4_0" index="0" length="10.13" shape="759.32,733.12 759.52,735.87 758.80,738.06 757.17,739.68 754.62,740.74" speed="8.33"/>
   </edge>
   <edge function="internal" id=":124519888_5">
      <lane disallow="tram rail_urban rail rail_electric ship" id=":124519888_5_0" index="0" length="4.82" shape="759.32,733.12 758.77,734.50 758.06,735.08 757.16,734.85 756.09,733.82" speed="8.33"/>
   </edge>
   <edge function="internal" id=":124519888_6">
      <lane disallow="tram rail_urban rail rail_electric ship" id=":124519888_6_0" index="0" length="4.96" shape="753.79,737.55 755.04,737.03 755.84,736.24 756.19,735.16 756.09,733.82" speed="8.33"/>
   </edge>
   <edge function="internal" id=":124519888_7">
      <lane disallow="tram rail_urban rail rail_electric ship" id=":124519888_7_0" index="0" length="9.52" shape="753.79,737.55 756.44,737.18 758.71,737.54 760.61,738.62 762.14,740.42" speed="8.33"/>
   </edge>
   <edge function="internal" id=":124519888_8">
      <lane disallow="tram rail_urban rail rail_electric ship" id=":124519888_8_0" index="0" length="4.82" shape="753.79,737.55 755.20,738.04 755.80,738.73 755.61,739.64 754.62,740.74" speed="8.33"/>
   </edge>
   <edge function="internal" id=":124519913_0">
      <lane disallow="tram rail_urban rail rail_electric ship" id=":124519913_0_0" index="0" length="5.60" shape="678.95,726.07 678.29,724.51 677.41,723.46 676.31,722.93 674.99,722.90" speed="8.33"/>
   </edge>
   <edge function="internal" id=":124519913_1">
      <lane disallow="tram rail_urban rail rail_electric ship" id=":124519913_1_0" index="0" length="11.05" shape="678.95,726.07 678.49,723.02 679.17,720.68 680.98,719.05 683.93,718.15" speed="8.33"/>
   </edge>
   <edge function="internal" id=":124519913_2">
      <lane allow="delivery bicycle pedestrian" id=":124519913_2_0" index="0" length="4.82" shape="678.95,726.07 679.38,724.65 680.05,724.01 680.96,724.17 682.11,725.12" speed="8.33"/>
   </edge>
   <edge function="internal" id=":124519913_3">
      <lane allow="delivery bicycle pedestrian" id=":124519913_3_0" index="0" length="5.17" shape="684.44,721.41 683.06,721.83 682.21,722.59 681.89,723.69 682.11,725.12" speed="8.33"/>
   </edge>
   <edge function="internal" id=":124519913_4">
      <lane disallow="tram rail_urban rail rail_electric ship" id=":124519913_4_0" index="0" length="9.57" shape="684.44,721.41 674.99,722.90" speed="8.33"/>
   </edge>
   <edge function="internal" id=":124519913_5">
      <lane disallow="tram rail_urban rail rail_electric ship" id=":124519913_5_0" index="0" length="2.41" shape="684.44,721.41 683.09,720.78 682.56,720.03" speed="8.33"/>
   </edge>
   <edge function="internal" id=":124519913_9">
      <lane id=":124519913_9_0" index="0" length="2.41" shape="682.56,720.03 682.84,719.15 683.93,718.15" speed="8.33"/>
   </edge>
   <edge function="internal" id=":124519913_6">
      <lane disallow="tram rail_urban rail rail_electric ship" id=":124519913_6_0" index="0" length="9.58" shape="674.47,719.64 683.93,718.15" speed="8.33"/>
   </edge>
   <edge function="internal" id=":124519913_7">
      <lane allow="delivery bicycle pedestrian" id=":124519913_7_0" index="0" length="4.95" shape="674.47,719.64 677.09,719.64 679.23,720.55" speed="8.33"/>
   </edge>
   <edge function="internal" id=":124519913_8">
      <lane disallow="tram rail_urban rail rail_electric ship" id=":124519913_8_0" index="0" length="2.41" shape="674.47,719.64 675.82,720.26 676.36,721.01" speed="8.33"/>
   </edge>
   <edge function="internal" id=":124519913_10">
      <lane id=":124519913_10_0" index="0" length="5.47" shape="679.23,720.55 680.91,722.38 682.11,725.12" speed="8.33"/>
   </edge>
   <edge function="internal" id=":124519913_11">
      <lane id=":124519913_11_0" index="0" length="2.41" shape="676.36,721.01 676.08,721.89 674.99,722.90" speed="8.33"/>
   </edge>
   <edge function="internal" id=":124519920_0">
      <lane disallow="tram rail_urban rail rail_electric ship" id=":124519920_0_0" index="0" length="6.21" shape="638.75,732.91 637.89,731.26 636.82,730.18 635.56,729.66 634.09,729.72" speed="8.33"/>
   </edge>
   <edge function="internal" id=":124519920_1">
      <lane disallow="tram rail_urban rail rail_electric ship" id=":124519920_1_0" index="0" length="11.50" shape="638.75,732.91 637.99,729.74 638.53,727.30 640.35,725.60 643.46,724.63" speed="8.33"/>
   </edge>
   <edge function="internal" id=":124519920_2">
      <lane allow="delivery bicycle pedestrian" id=":124519920_2_0" index="0" length="4.82" shape="638.75,732.91 639.06,731.45 639.68,730.77 640.60,730.84 641.82,731.69" speed="8.33"/>
   </edge>
   <edge function="internal" id=":124519920_3">
      <lane allow="delivery bicycle pedestrian" id=":124519920_3_0" index="0" length="5.28" shape="643.98,727.89 642.55,728.33 641.72,729.12 641.47,730.23 641.82,731.69" speed="8.33"/>
   </edge>
   <edge function="internal" id=":124519920_4">
      <lane disallow="tram rail_urban rail rail_electric ship" id=":124519920_4_0" index="0" length="10.06" shape="643.98,727.89 641.04,728.36 639.02,728.71 637.01,729.10 634.09,729.72" speed="8.33"/>
   </edge>
   <edge function="internal" id=":124519920_5">
      <lane disallow="tram rail_urban rail rail_electric ship" id=":124519920_5_0" index="0" length="2.41" shape="643.98,727.89 642.63,727.27 642.09,726.52" speed="8.33"/>
   </edge>
   <edge function="internal" id=":124519920_9">
      <lane id=":124519920_9_0" index="0" length="2.41" shape="642.09,726.52 642.37,725.64 643.46,724.63" speed="8.33"/>
   </edge>
   <edge function="internal" id=":124519920_6">
      <lane disallow="tram rail_urban rail rail_electric ship" id=":124519920_6_0" index="0" length="10.23" shape="633.40,726.49 636.34,725.87 638.41,725.46 640.49,725.11 643.46,724.63" speed="8.33"/>
   </edge>
   <edge function="internal" id=":124519920_7">
      <lane allow="delivery bicycle pedestrian" id=":124519920_7_0" index="0" length="5.18" shape="633.40,726.49 636.12,726.34 638.43,727.16" speed="8.33"/>
   </edge>
   <edge function="internal" id=":124519920_8">
      <lane disallow="tram rail_urban rail rail_electric ship" id=":124519920_8_0" index="0" length="2.41" shape="633.40,726.49 634.78,727.04 635.36,727.76" speed="8.33"/>
   </edge>
   <edge function="internal" id=":124519920_10">
      <lane id=":124519920_10_0" index="0" length="5.73" shape="638.43,727.16 640.33,728.94 641.82,731.69" speed="8.33"/>
   </edge>
   <edge function="internal" id=":124519920_11">
      <lane id=":124519920_11_0" index="0" length="2.41" shape="635.36,727.76 635.13,728.65 634.09,729.72" speed="8.33"/>
   </edge>
   <edge function="internal" id=":124520007_0">
      <lane disallow="tram rail_urban rail rail_electric ship" id=":124520007_0_0" index="0" length="5.22" shape="760.36,392.73 759.97,391.32 759.22,390.45 758.12,390.14 756.67,390.37" speed="8.33"/>
   </edge>
   <edge function="internal" id=":124520007_1">
      <lane disallow="tram rail_urban rail rail_electric ship" id=":124520007_1_0" index="0" length="9.27" shape="760.36,392.73 760.17,389.90 760.39,387.48 761.00,385.47 762.02,383.87" speed="8.33"/>
   </edge>
   <edge function="internal" id=":124520007_2">
      <lane disallow="tram rail_urban rail rail_electric ship" id=":124520007_2_0" index="0" length="4.82" shape="760.36,392.73 761.02,391.40 761.79,390.89 762.66,391.19 763.64,392.31" speed="8.33"/>
   </edge>
   <edge function="internal" id=":124520007_3">
      <lane disallow="tram rail_urban rail rail_electric ship" id=":124520007_3_0" index="0" length="6.48" shape="764.51,386.05 763.90,387.06 763.56,388.45 763.47,390.20 763.64,392.31" speed="8.33"/>
   </edge>
   <edge function="internal" id=":124520007_4">
      <lane disallow="tram rail_urban rail rail_electric ship" id=":124520007_4_0" index="0" length="8.95" shape="764.51,386.05 756.67,390.37" speed="8.33"/>
   </edge>
   <edge function="internal" id=":124520007_5">
      <lane disallow="tram rail_urban rail rail_electric ship" id=":124520007_5_0" index="0" length="4.82" shape="764.51,386.05 763.07,386.43 762.18,386.20 761.83,385.35 762.02,383.87" speed="8.33"/>
   </edge>
   <edge function="internal" id=":124520007_6">
      <lane disallow="tram rail_urban rail rail_electric ship" id=":124520007_6_0" index="0" length="7.17" shape="755.69,387.23 762.02,383.87" speed="8.33"/>
   </edge>
   <edge function="internal" id=":124520007_7">
      <lane disallow="tram rail_urban rail rail_electric ship" id=":124520007_7_0" index="0" length="11.25" shape="755.69,387.23 758.81,386.72 761.18,387.40 762.79,389.26 763.64,392.31" speed="8.33"/>
   </edge>
   <edge function="internal" id=":124520007_8">
      <lane disallow="tram rail_urban rail rail_electric ship" id=":124520007_8_0" index="0" length="4.82" shape="755.69,387.23 757.11,387.64 757.76,388.31 757.61,389.22 756.67,390.37" speed="8.33"/>
   </edge>
   <edge function="internal" id=":124520035_0">
      <lane allow="delivery bicycle pedestrian" id=":124520035_0_0" index="0" length="4.02" shape="646.12,747.24 645.20,746.78 644.44,746.16 643.82,745.40 643.35,744.48" speed="8.33"/>
   </edge>
   <edge function="internal" id=":124520035_1">
      <lane allow="delivery bicycle pedestrian" id=":124520035_1_0" index="0" length="2.86" shape="646.12,747.24 645.27,746.02 645.18,745.10 645.52,744.80" speed="8.33"/>
   </edge>
   <edge function="internal" id=":124520035_4">
      <lane id=":124520035_4_0" index="0" length="1.96" shape="645.52,744.80 645.87,744.48 647.32,744.17" speed="8.33"/>
   </edge>
   <edge function="internal" id=":124520035_2">
      <lane allow="delivery bicycle pedestrian" id=":124520035_2_0" index="0" length="1.31" shape="646.42,743.27 646.57,743.56 646.77,743.81 647.02,744.01 647.32,744.17" speed="8.33"/>
   </edge>
   <edge function="internal" id=":124520035_3">
      <lane allow="delivery bicycle pedestrian" id=":124520035_3_0" index="0" length="2.06" shape="646.42,743.27 646.11,744.72 645.73,745.15" speed="8.33"/>
   </edge>
   <edge function="internal" id=":124520035_5">
      <lane id=":124520035_5_0" index="0" length="2.76" shape="645.73,745.15 645.49,745.41 644.57,745.33 643.35,744.48" speed="8.33"/>
   </edge>
   <edge function="internal" id=":1261973845_0">
      <lane disallow="tram rail_urban rail rail_electric ship" id=":1261973845_0_0" index="0" length="5.13" shape="43.38,189.85 47.59,186.92" speed="19.44"/>
   </edge>
   <edge function="internal" id=":1261973845_1">
      <lane disallow="tram rail_urban rail rail_electric ship" id=":1261973845_1_0" index="0" length="5.12" shape="43.38,189.85 48.33,191.16" speed="19.44"/>
   </edge>
   <edge function="internal" id=":1261973883_0">
      <lane disallow="tram rail_urban rail rail_electric ship" id=":1261973883_0_0" index="0" length="5.15" shape="40.53,229.80 37.44,225.67" speed="19.44"/>
   </edge>
   <edge function="internal" id=":1261973883_1">
      <lane disallow="tram rail_urban rail rail_electric ship" id=":1261973883_1_0" index="0" length="5.12" shape="42.55,226.01 37.44,225.67" speed="19.44"/>
   </edge>
   <edge function="internal" id=":1261973915_0">
      <lane allow="delivery bicycle pedestrian" id=":1261973915_0_0" index="0" length="5.74" shape="635.68,285.29 633.96,284.90 632.62,285.07 631.64,285.79 631.04,287.07" speed="6.95"/>
   </edge>
   <edge function="internal" id=":1261973915_1">
      <lane disallow="tram rail_urban rail rail_electric ship" id=":1261973915_1_0" index="0" length="11.00" shape="635.68,285.29 633.09,284.00 631.21,282.19 630.05,279.86 629.61,277.00" speed="8.33"/>
   </edge>
   <edge function="internal" id=":1261973915_2">
      <lane disallow="tram rail_urban rail rail_electric ship" id=":1261973915_2_0" index="0" length="2.13" shape="635.68,285.29 635.38,283.65 635.54,283.21" speed="8.33"/>
   </edge>
   <edge function="internal" id=":1261973915_9">
      <lane id=":1261973915_9_0" index="0" length="3.27" shape="635.54,283.21 635.73,282.67 636.71,282.36 638.34,282.72" speed="8.33"/>
   </edge>
   <edge function="internal" id=":1261973915_3">
      <lane disallow="tram rail_urban rail rail_electric ship" id=":1261973915_3_0" index="0" length="8.49" shape="632.91,276.91 633.29,278.75 634.32,280.34 636.01,281.66 638.34,282.72" speed="8.33"/>
   </edge>
   <edge function="internal" id=":1261973915_4">
      <lane allow="delivery bicycle pedestrian" id=":1261973915_4_0" index="0" length="10.41" shape="632.91,276.91 632.86,279.92 632.52,282.05 631.90,284.15 631.04,287.07" speed="6.95"/>
   </edge>
   <edge function="internal" id=":1261973915_5">
      <lane disallow="tram rail_urban rail rail_electric ship" id=":1261973915_5_0" index="0" length="2.23" shape="632.91,276.91 632.12,278.17 631.46,278.52" speed="8.33"/>
   </edge>
   <edge function="internal" id=":1261973915_10">
      <lane id=":1261973915_10_0" index="0" length="2.59" shape="631.46,278.52 631.30,278.60 630.47,278.21 629.61,277.00" speed="8.33"/>
   </edge>
   <edge function="internal" id=":1261973915_6">
      <lane disallow="tram rail_urban rail rail_electric ship" id=":1261973915_6_0" index="0" length="9.38" shape="627.85,286.21 629.61,277.00" speed="6.95"/>
   </edge>
   <edge function="internal" id=":1261973915_7">
      <lane disallow="tram rail_urban rail rail_electric ship" id=":1261973915_7_0" index="0" length="12.71" shape="627.85,286.21 629.17,283.54 631.36,282.07 634.41,281.80 638.34,282.72" speed="6.95"/>
   </edge>
   <edge function="internal" id=":1261973915_8">
      <lane allow="delivery bicycle pedestrian" id=":1261973915_8_0" index="0" length="4.82" shape="627.85,286.21 628.97,285.23 629.88,285.05 630.56,285.66 631.04,287.07" speed="5.56"/>
   </edge>
   <edge function="internal" id=":1261973921_0">
      <lane disallow="tram rail_urban rail rail_electric ship" id=":1261973921_0_0" index="0" length="4.82" shape="640.14,183.27 640.85,181.96 641.64,181.48 642.49,181.82 643.43,182.98" speed="8.33"/>
   </edge>
   <edge function="internal" id=":1261973931_0">
      <lane disallow="tram rail_urban rail rail_electric ship" id=":1261973931_0_0" index="0" length="5.06" shape="105.80,110.37 104.34,115.22" speed="23.61"/>
   </edge>
   <edge function="internal" id=":1261973931_1">
      <lane disallow="tram rail_urban rail rail_electric ship" id=":1261973931_1_0" index="0" length="2.16" shape="105.80,110.37 104.43,110.95 103.76,110.87" speed="27.78"/>
   </edge>
   <edge function="internal" id=":1261973931_4">
      <lane id=":1261973931_4_0" index="0" length="2.66" shape="103.76,110.87 103.51,110.84 103.05,110.05 103.05,108.56" speed="27.78"/>
   </edge>
   <edge function="internal" id=":1261973931_2">
      <lane disallow="tram rail_urban rail rail_electric ship" id=":1261973931_2_0" index="0" length="6.27" shape="100.76,113.67 100.29,106.74" speed="23.61"/>
      <lane disallow="tram rail_urban rail rail_electric ship" id=":1261973931_2_1" index="1" length="6.27" shape="100.76,113.67 103.05,108.56" speed="23.61"/>
   </edge>
   <edge function="internal" id=":1262059740_0">
      <lane disallow="tram rail_urban rail rail_electric ship" id=":1262059740_0_0" index="0" length="4.82" shape="686.89,48.08 688.08,48.97 688.45,49.81 687.99,50.62 686.71,51.37" speed="8.33"/>
   </edge>
   <edge function="internal" id=":1262059745_0">
      <lane disallow="tram rail_urban rail rail_electric ship" id=":1262059745_0_0" index="0" length="0.10" shape="558.03,82.01 558.03,82.00" speed="8.33"/>
   </edge>
   <edge function="internal" id=":1262059745_1">
      <lane disallow="tram rail_urban rail rail_electric ship" id=":1262059745_1_0" index="0" length="2.41" shape="558.03,82.01 558.39,80.57 559.03,79.90" speed="8.33"/>
   </edge>
   <edge function="internal" id=":1262059745_4">
      <lane id=":1262059745_4_0" index="0" length="2.41" shape="559.03,79.90 559.95,80.01 561.14,80.90" speed="8.33"/>
   </edge>
   <edge function="internal" id=":1262059745_2">
      <lane disallow="tram rail_urban rail rail_electric ship" id=":1262059745_2_0" index="0" length="0.10" shape="561.14,80.91 561.14,80.90" speed="8.33"/>
   </edge>
   <edge function="internal" id=":1262059745_3">
      <lane disallow="tram rail_urban rail rail_electric ship" id=":1262059745_3_0" index="0" length="2.41" shape="561.14,80.91 560.77,82.35 560.13,83.01" speed="8.33"/>
   </edge>
   <edge function="internal" id=":1262059745_5">
      <lane id=":1262059745_5_0" index="0" length="2.41" shape="560.13,83.01 559.22,82.90 558.03,82.00" speed="8.33"/>
   </edge>
   <edge function="internal" id=":1270203791_0">
      <lane allow="delivery bicycle pedestrian" id=":1270203791_0_0" index="0" length="7.72" shape="514.39,809.02 512.34,809.49 510.61,809.21 509.20,808.16 508.11,806.35" speed="8.33"/>
   </edge>
   <edge function="internal" id=":1270203791_1">
      <lane allow="delivery bicycle pedestrian" id=":1270203791_1_0" index="0" length="2.81" shape="514.39,809.02 512.94,808.70 512.26,808.07 512.29,807.68" speed="8.33"/>
   </edge>
   <edge function="internal" id=":1270203791_4">
      <lane id=":1270203791_4_0" index="0" length="2.01" shape="512.29,807.68 512.34,807.16 513.20,805.94" speed="8.33"/>
   </edge>
   <edge function="internal" id=":1270203791_2">
      <lane allow="delivery bicycle pedestrian" id=":1270203791_2_0" index="0" length="2.52" shape="511.15,805.07 511.51,805.66 511.97,806.00 512.53,806.10 513.20,805.94" speed="8.33"/>
   </edge>
   <edge function="internal" id=":1270203791_3">
      <lane allow="delivery bicycle pedestrian" id=":1270203791_3_0" index="0" length="2.20" shape="511.15,805.07 510.88,806.53 510.41,807.07" speed="8.33"/>
   </edge>
   <edge function="internal" id=":1270203791_5">
      <lane id=":1270203791_5_0" index="0" length="2.62" shape="510.41,807.07 510.28,807.23 509.36,807.17 508.11,806.35" speed="8.33"/>
   </edge>
   <edge function="internal" id=":1270203798_0">
      <lane allow="delivery bicycle pedestrian" id=":1270203798_0_0" index="0" length="0.33" shape="627.36,742.14 627.35,741.81" speed="8.33"/>
   </edge>
   <edge function="internal" id=":1270203798_1">
      <lane allow="delivery bicycle pedestrian" id=":1270203798_1_0" index="0" length="2.41" shape="627.36,742.14 628.11,740.86 628.90,740.39" speed="8.33"/>
   </edge>
   <edge function="internal" id=":1270203798_4">
      <lane id=":1270203798_4_0" index="0" length="2.41" shape="628.90,740.39 629.75,740.75 630.65,741.94" speed="8.33"/>
   </edge>
   <edge function="internal" id=":1270203798_2">
      <lane allow="delivery bicycle pedestrian" id=":1270203798_2_0" index="0" length="0.11" shape="630.65,741.83 630.65,741.94" speed="8.33"/>
   </edge>
   <edge function="internal" id=":1270203798_3">
      <lane allow="delivery bicycle pedestrian" id=":1270203798_3_0" index="0" length="2.41" shape="630.65,741.83 629.82,743.06 628.99,743.47" speed="8.33"/>
   </edge>
   <edge function="internal" id=":1270203798_5">
      <lane id=":1270203798_5_0" index="0" length="2.41" shape="628.99,743.47 628.17,743.05 627.35,741.81" speed="8.33"/>
   </edge>
   <edge function="internal" id=":1270203800_0">
      <lane allow="delivery bicycle pedestrian" id=":1270203800_0_0" index="0" length="1.66" shape="581.58,782.86 580.15,783.71" speed="8.33"/>
   </edge>
   <edge function="internal" id=":1270203800_1">
      <lane allow="delivery bicycle pedestrian" id=":1270203800_1_0" index="0" length="2.41" shape="581.58,782.86 580.11,783.04 579.26,782.68" speed="8.33"/>
   </edge>
   <edge function="internal" id=":1270203800_4">
      <lane id=":1270203800_4_0" index="0" length="2.41" shape="579.26,782.68 579.03,781.79 579.44,780.35" speed="8.33"/>
   </edge>
   <edge function="internal" id=":1270203800_2">
      <lane allow="delivery bicycle pedestrian" id=":1270203800_2_0" index="0" length="0.54" shape="578.97,780.63 579.44,780.35" speed="8.33"/>
   </edge>
   <edge function="internal" id=":1270203800_3">
      <lane allow="delivery bicycle pedestrian" id=":1270203800_3_0" index="0" length="2.41" shape="578.97,780.63 580.42,780.96 581.10,781.58" speed="8.33"/>
   </edge>
   <edge function="internal" id=":1270203800_5">
      <lane id=":1270203800_5_0" index="0" length="2.41" shape="581.10,781.58 581.01,782.50 580.15,783.71" speed="8.33"/>
   </edge>
   <edge function="internal" id=":1270203801_0">
      <lane allow="delivery bicycle pedestrian" id=":1270203801_0_0" index="0" length="5.98" shape="631.15,749.77 631.05,751.34 630.53,752.66 629.60,753.73 628.26,754.55" speed="8.33"/>
   </edge>
   <edge function="internal" id=":1270203801_1">
      <lane allow="delivery bicycle pedestrian" id=":1270203801_1_0" index="0" length="2.85" shape="631.15,749.77 630.40,751.06 629.60,751.52 629.20,751.35" speed="8.33"/>
   </edge>
   <edge function="internal" id=":1270203801_4">
      <lane id=":1270203801_4_0" index="0" length="1.97" shape="629.20,751.35 628.76,751.16 627.85,749.98" speed="8.33"/>
   </edge>
   <edge function="internal" id=":1270203801_2">
      <lane allow="delivery bicycle pedestrian" id=":1270203801_2_0" index="0" length="1.95" shape="626.91,751.54 627.35,751.27 627.65,750.93 627.82,750.49 627.85,749.98" speed="8.33"/>
   </edge>
   <edge function="internal" id=":1270203801_3">
      <lane allow="delivery bicycle pedestrian" id=":1270203801_3_0" index="0" length="2.09" shape="626.91,751.54 628.38,751.79 628.84,752.17" speed="8.33"/>
   </edge>
   <edge function="internal" id=":1270203801_5">
      <lane id=":1270203801_5_0" index="0" length="2.73" shape="628.84,752.17 629.09,752.37 629.05,753.29 628.26,754.55" speed="8.33"/>
   </edge>
   <edge function="internal" id=":1270203803_0">
      <lane allow="delivery bicycle pedestrian" id=":1270203803_0_0" index="0" length="4.82" shape="507.38,804.62 507.66,803.15 508.26,802.45 509.18,802.51 510.42,803.33" speed="8.33"/>
   </edge>
   <edge function="internal" id=":135902174_0">
      <lane disallow="tram rail_urban rail rail_electric ship" id=":135902174_0_0" index="0" length="4.82" shape="865.60,293.92 867.07,294.12 867.80,294.68 867.79,295.60 867.05,296.89" speed="8.33"/>
   </edge>
   <edge function="internal" id=":1931813522_0">
      <lane allow="delivery bicycle pedestrian" id=":1931813522_0_0" index="0" length="6.69" shape="837.63,228.83 837.02,227.78 835.92,226.82 834.34,225.96 832.26,225.19" speed="5.56"/>
   </edge>
   <edge function="internal" id=":1931813522_1">
      <lane allow="delivery bicycle pedestrian" id=":1931813522_1_0" index="0" length="11.07" shape="837.63,228.83 836.63,225.86 835.86,223.59 835.07,221.32 834.04,218.36" speed="5.56"/>
   </edge>
   <edge function="internal" id=":1931813522_2">
      <lane allow="delivery bicycle pedestrian" id=":1931813522_2_0" index="0" length="4.82" shape="837.63,228.83 838.02,227.39 838.67,226.74 839.59,226.87 840.76,227.78" speed="5.56"/>
   </edge>
   <edge function="internal" id=":1931813522_3">
      <lane allow="delivery bicycle pedestrian" id=":1931813522_3_0" index="0" length="11.11" shape="837.16,217.27 838.19,220.24 838.98,222.52 839.76,224.80 840.76,227.78" speed="5.56"/>
   </edge>
   <edge function="internal" id=":1931813522_4">