<?xml version="1.0" encoding="utf-8"?><!-- generated on 10/11/17 17:51:54 by SUMO polyconvert Version 0.25.0
<?xml version="1.0" encoding="UTF-8"?>

<configuration xmlns:xsi="http://www.w3.org/2001/XMLSchema-instance" xsi:noNamespaceSchemaLocation="http://sumo.dlr.de/xsd/polyconvertConfiguration.xsd">

    <input>
        <net-file value="EM_Riegel_rural_800.net.xml"/>
        <osm-files value="EM_Riegel_rural_800.osm"/>
        <type-file value="osmPolyconvert.typ.xml"/>
    </input>

    <output>
        <output-file value="EM_Riegel_rural_800.poly.xml"/>
    </output>

    <projection>
        <proj.utm value="true"/>
    </projection>

    <processing>
        <poi-layer-offset value="5"/>
    </processing>

</configuration>
-->
<additional>
   <location convBoundary="-3.01,-15.78,873.85,845.90" netOffset="-406456.00,-5333377.65" origBoundary="7.742300,48.146700,7.753999,48.154397" projParameter="+proj=utm +zone=32 +ellps=WGS84 +datum=WGS84 +units=m +no_defs"/>
   <poly color="237,199,199" fill="1" id="110517091" layer="-1.00" shape="729.34,53.45 730.82,61.88 744.17,59.55 743.89,57.98 748.32,57.20 746.00,43.93 741.38,44.73 742.50,51.16 729.34,53.45" type="amenity"/>
   <poly color="red" fill="1" id="110517091#1" layer="-1.00" shape="729.34,53.45 730.82,61.88 744.17,59.55 743.89,57.98 748.32,57.20 746.00,43.93 741.38,44.73 742.50,51.16 729.34,53.45" type="building"/>
   <poly color="207,245,201" fill="1" id="110517091#2" layer="-2.00" shape="729.34,53.45 730.82,61.88 744.17,59.55 743.89,57.98 748.32,57.20 746.00,43.93 741.38,44.73 742.50,51.16 729.34,53.45" type="tourism"/>
   <poly color="red" fill="1" id="110524723" layer="-1.00" shape="453.26,271.14 453.02,257.49 465.72,257.07 465.80,261.30 468.61,261.15 470.77,254.10 478.15,254.78 477.77,262.09 484.30,264.30 488.42,256.46 495.84,259.87 494.23,264.50 499.20,266.03 495.28,277.77 476.06,270.92 453.26,271.14" type="building"/>
   <poly color="red" fill="1" id="110524724" layer="-1.00" shape="586.32,149.31 584.03,135.01 610.41,130.83 612.87,145.07 586.32,149.31" type="building"/>
   <poly color="red" fill="1" id="110524726" layer="-1.00" shape="615.49,137.14 613.11,123.32 631.58,120.09 633.93,134.04 615.49,137.14" type="building"/>
   <poly color="237,199,199" fill="1" id="110524728" layer="-1.00" shape="663.39,172.08 676.15,170.18 675.28,164.37 672.81,164.73 671.94,158.93 682.67,157.34 688.66,197.40 680.62,198.59 680.31,196.50 667.33,198.43 663.39,172.08" type="amenity"/>
   <poly color="red" fill="1" id="110524728#1" layer="-1.00" shape="663.39,172.08 676.15,170.18 675.28,164.37 672.81,164.73 671.94,158.93 682.67,157.34 688.66,197.40 680.62,198.59 680.31,196.50 667.33,198.43 663.39,172.08" type="building"/>
   <poly color="red" fill="1" id="110524730" layer="-1.00" shape="603.81,196.47 601.49,181.77 618.73,179.06 621.27,193.79 603.81,196.47" type="building"/>
   <poly color="237,199,199" fill="1" id="110524732" layer="-1.00" shape="573.12,423.32 583.41,400.00 602.25,408.25 599.39,414.74 588.23,409.85 585.88,415.19 591.45,417.62 586.38,429.13 573.12,423.32" type="amenity"/>
   <poly color="red" fill="1" id="110524732#1" layer="-1.00" shape="573.12,423.32 583.41,400.00 602.25,408.25 599.39,414.74 588.23,409.85 585.88,415.19 591.45,417.62 586.38,429.13 573.12,423.32" type="building"/>
   <poly color="red" fill="1" id="110524734" layer="-1.00" shape="640.91,151.27 638.67,137.98 656.03,135.33 658.07,148.64 640.91,151.27" type="building"/>
   <poly color="red" fill="1" id="110524736" layer="-1.00" shape="582.95,208.27 580.27,192.24 589.57,190.69 592.26,206.72 582.95,208.27" type="building"/>
   <poly color="red" fill="1" id="110524737" layer="-1.00" shape="621.85,173.96 619.41,159.80 637.86,157.35 640.11,170.77 621.85,173.96" type="building"/>
   <poly color="red" fill="1" id="110525889" layer="-1.00" shape="192.66,243.23 191.44,230.76 207.23,228.36 208.71,241.06 192.66,243.23" type="building"/>
   <poly color="red" fill="1" id="110525901" layer="-1.00" shape="198.86,356.94 199.25,344.62 221.64,345.32 221.25,357.65 198.86,356.94" type="building"/>
   <poly color="red" fill="1" id="110525927" layer="-1.00" shape="213.14,320.31 210.78,297.59 216.43,297.01 218.80,319.73 213.14,320.31" type="building"/>
   <poly color="red" fill="1" id="110525930" layer="-1.00" shape="182.54,320.23 182.90,302.56 195.48,302.72 194.91,320.23 182.54,320.23" type="building"/>
   <poly color="red" fill="1" id="110525932" layer="-1.00" shape="240.07,228.43 239.78,217.55 253.59,217.20 253.87,228.08 240.07,228.43" type="building"/>
   <poly color="red" fill="0" id="110525939" layer="-1.00" shape="547.18,839.41 604.01,817.27" type="building"/>
   <poly color="red" fill="1" id="110525943" layer="-1.00" shape="181.54,271.71 180.33,254.13 193.02,253.02 194.30,270.70 181.54,271.71" type="building"/>
   <poly color="235,235,227" fill="1" id="111488508" layer="-3.00" shape="275.39,370.25 273.64,463.14 346.63,456.23 347.28,446.87 369.79,444.91 412.62,440.62 420.37,477.15 435.10,450.65 450.36,407.43 458.70,380.24 482.83,342.44 499.81,307.15 499.65,296.80 483.48,284.33 462.69,282.28 435.51,279.54 396.53,287.34 365.61,300.58 387.87,361.33 275.39,370.25" type="residential"/>
   <poly color="181,209,209" fill="0" id="12310335" layer="-4.00" shape="862.09,670.30 853.51,744.15" type="water"/>
   <poly color="181,209,209" fill="0" id="12315494" layer="-4.00" shape="853.51,744.15 869.95,745.50" type="water"/>
   <poly color="242,242,204" fill="1" id="129210076" layer="-3.00" shape="576.75,633.65 549.01,633.70 514.95,600.84 519.94,587.83 529.09,586.88 538.43,565.74 552.56,551.59 559.85,552.86 571.41,562.91 578.01,572.56 590.83,591.84 574.97,598.07 576.75,633.65" type="farm"/>
   <poly color="194,194,130" fill="1" id="136776970" layer="-3.00" shape="751.54,705.28 762.49,693.31 769.48,685.03 787.05,661.53 798.73,643.45 807.37,626.36 816.99,601.66 821.50,583.73 825.51,565.40 845.38,417.20 854.83,353.01 862.09,303.08 858.04,306.62 857.79,299.58 862.71,276.74 863.83,272.06 861.09,354.42 837.11,529.79 833.73,566.00 829.30,565.81 825.96,582.47 820.42,604.73 811.85,627.16 802.70,645.40 793.46,662.88 781.73,679.53 773.76,689.97 773.77,693.62 763.24,702.37 752.70,710.98 756.21,726.43 813.54,704.03 813.20,706.30 812.87,708.30 756.99,730.21 758.69,737.99 730.50,745.24 696.63,757.90 684.51,762.43 637.34,788.56 527.99,832.98 38.06,842.54 45.09,845.90 510.86,808.61 580.08,781.97 596.74,767.69 598.73,765.98 629.64,752.13 629.00,741.93 629.06,729.11 638.24,727.14 679.02,720.59 719.84,714.20 750.23,700.38 751.54,705.28" type="landuse"/>
   <poly color="181,209,209" fill="1" id="137349627" layer="-4.00" shape="869.72,759.15 862.28,769.19 815.72,832.90 814.81,819.44 828.95,751.16 869.72,759.15" type="water"/>
   <poly color="red" fill="0" id="164598105" layer="-1.00" shape="865.87,194.61 863.66,194.32 860.03,222.67" type="building"/>
   <poly color="red" fill="1" id="182812977" layer="-1.00" shape="824.93,287.18 835.51,290.65 840.48,275.54 829.90,272.07 824.93,287.18" type="building"/>
   <poly color="184,184,179" fill="1" id="182812979" layer="-1.00" shape="802.22,239.45 844.63,253.22 841.86,243.85 836.20,224.69 826.71,192.60 811.74,189.05 802.22,239.45" type="parking"/>
   <poly color="181,209,209" fill="1" id="196019574" layer="-4.00" shape="869.72,759.15 873.85,756.18 868.10,735.88 869.95,745.50 869.72,759.15" type="water"/>
   <poly color="red" fill="1" id="199072241" layer="-1.00" shape="6.04,322.73 6.46,314.50 14.85,314.93 15.13,309.52 17.73,309.64 22.43,309.89 22.16,315.13 18.88,314.96 18.45,323.38 12.79,322.97 6.04,322.73" type="building"/>
   <poly color="red" fill="1" id="199072256" layer="-1.00" shape="1.85,389.55 2.62,373.87 14.18,374.44 13.41,390.11 1.85,389.55" type="building"/>
   <poly color="red" fill="1" id="199072257" layer="-1.00" shape="-2.59,246.41" type="building"/>
   <poly color="red" fill="1" id="199072281" layer="-1.00" shape="7.68,468.17 7.68,464.67 13.70,464.68 13.69,468.18 7.68,468.17" type="building"/>
   <poly color="red" fill="0" id="199072288" layer="-1.00" shape="9.19,453.86 9.15,464.36" type="building"/>
   <poly color="red" fill="0" id="199072333" layer="-1.00" shape="12.51,398.27 12.64,411.62" type="building"/>
   <poly color="red" fill="1" id="199072338" layer="-1.00" shape="2.26,255.19 5.71,256.52 12.20,248.56 6.36,245.89 5.95,246.44 2.26,255.19" type="building"/>
   <poly color="red" fill="1" id="199072361" layer="-1.00" shape="0.56,349.11 0.77,339.09 12.44,339.34 12.40,341.06 12.23,349.35 0.56,349.11" type="building"/>
   <poly color="red" fill="1" id="199072363" layer="-1.00" shape="5.65,265.80 5.44,262.14 7.75,262.00 14.24,261.62 14.45,265.30 5.65,265.80" type="building"/>
   <poly color="red" fill="1" id="199072365" layer="-1.00" shape="4.58,327.83 4.76,322.68 6.04,322.73 12.79,322.97 12.61,328.08 4.58,327.83" type="building"/>
   <poly color="red" fill="1" id="199072369" layer="-1.00" shape="12.40,341.06 12.44,339.34 12.49,336.47 16.47,336.59 19.07,336.67 18.93,341.25 12.40,341.06" type="building"/>
   <poly color="red" fill="0" id="199072390" layer="-1.00" shape="1.64,511.88 1.45,515.17" type="building"/>
   <poly color="red" fill="1" id="199072391" layer="-1.00" shape="0.08,448.43 0.17,437.13 13.97,437.24 13.85,451.57 5.30,451.51 5.32,448.47 0.08,448.43" type="building"/>
   <poly color="red" fill="1" id="199072402" layer="-1.00" shape="2.07,336.12 2.33,327.76 4.58,327.83 12.61,328.08 16.72,328.20 16.47,336.59 12.49,336.47 2.07,336.12" type="building"/>
   <poly color="red" fill="0" id="199072407" layer="-1.00" shape="-2.59,246.41 -1.32,243.39 5.95,246.44 2.26,255.19 1.25,257.61" type="building"/>
   <poly color="red" fill="1" id="199072430" layer="-1.00" shape="4.48,513.30 4.85,502.76 10.45,502.40 13.68,505.86 13.87,509.50 10.19,513.11 4.48,513.30" type="building"/>
   <poly color="red" fill="1" id="199072434" layer="-1.00" shape="7.75,262.00 7.70,258.81 5.71,256.52 12.20,248.56 14.00,247.02 19.13,252.65 19.59,261.31 14.24,261.62 7.75,262.00" type="building"/>
   <poly color="red" fill="0" id="199072435" layer="-1.00" shape="0.81,380.68 0.50,389.09" type="building"/>
   <poly color="red" fill="0" id="199072437" layer="-1.00" shape="11.24,422.08 11.14,430.16 13.03,430.18 12.97,435.24 4.69,435.14 4.72,433.02" type="building"/>
   <poly color="red" fill="1" id="199072458" layer="-1.00" shape="4.18,309.14 4.43,301.16 6.64,301.25 6.77,297.92 14.17,295.72 14.26,301.19 18.24,301.50 17.73,309.64 15.13,309.52 4.18,309.14" type="building"/>
   <poly color="red" fill="1" id="199082194" layer="-1.00" shape="253.78,340.22 254.06,334.83 256.01,334.93 256.11,333.01 267.46,333.60 266.95,343.35 261.96,343.10 262.01,342.16 256.56,341.88 256.64,340.37 253.78,340.22" type="building"/>
   <poly color="red" fill="1" id="199082198" layer="-1.00" shape="254.17,208.91 252.82,192.70 266.00,192.11 265.55,188.04 272.10,187.40 272.46,195.70 266.15,196.33 266.22,200.94 277.71,200.76 279.19,205.74 279.15,208.43 254.17,208.91" type="building"/>
   <poly color="red" fill="1" id="199082199" layer="-1.00" shape="233.18,321.65 233.50,312.73 225.23,250.26 230.73,249.23 231.60,255.98 233.14,267.88 234.09,275.23 235.82,287.22 236.73,294.77 239.22,313.25 238.42,321.27 233.18,321.65" type="building"/>
   <poly color="red" fill="1" id="199082200" layer="-1.00" shape="180.35,209.64 179.01,196.00 182.30,195.68 182.15,194.20 187.93,193.64 188.09,195.27 189.65,195.12 189.49,193.59 194.61,193.10 194.74,194.43 196.90,194.29 198.13,207.55 180.35,209.64" type="building"/>
   <poly color="red" fill="1" id="199082202" layer="-1.00" shape="154.37,196.27 155.85,196.24 155.82,194.42 160.13,194.35 160.15,195.95 162.01,195.92 161.98,194.18 166.51,194.11 166.53,195.88 171.09,195.80 171.32,209.70 152.38,210.01 154.37,196.27" type="building"/>
   <poly color="red" fill="1" id="199082203" layer="-1.00" shape="365.18,150.35 367.20,139.72 376.68,141.51 374.66,152.14 365.18,150.35" type="building"/>
   <poly color="red" fill="1" id="199082204" layer="-1.00" shape="217.62,-5.16 229.93,-9.67 217.62,-5.16" type="building"/>
   <poly color="red" fill="1" id="199082205" layer="-1.00" shape="136.34,263.17 137.54,254.26 143.05,255.01 141.84,263.91 136.34,263.17" type="building"/>
   <poly color="red" fill="1" id="199082206" layer="-1.00" shape="376.55,177.11 378.62,166.91 394.05,170.02 391.98,180.23 376.55,177.11" type="building"/>
   <poly color="red" fill="1" id="199082208" layer="-1.00" shape="371.53,194.57 373.64,184.34 386.31,186.92 384.21,197.15 371.53,194.57" type="building"/>
   <poly color="red" fill="1" id="199082209" layer="-1.00" shape="361.28,210.43 356.93,210.17 357.20,203.43 361.75,203.67 361.28,210.43" type="building"/>
   <poly color="red" fill="1" id="199082210" layer="-1.00" shape="231.60,255.98 238.94,255.04 238.08,248.29 230.73,249.23 231.60,255.98" type="building"/>
   <poly color="red" fill="1" id="199082211" layer="-1.00" shape="143.09,122.11 142.04,116.28 162.19,112.66 163.24,118.50 143.09,122.11" type="building"/>
   <poly color="red" fill="1" id="199082212" layer="-1.00" shape="236.73,294.77 243.58,293.96 242.68,286.41 235.82,287.22 236.73,294.77" type="building"/>
   <poly color="red" fill="1" id="199082213" layer="-1.00" shape="253.92,287.78 252.59,276.58 262.21,275.44 263.54,286.65 253.92,287.78" type="building"/>
   <poly color="red" fill="1" id="199082215" layer="-1.00" shape="269.21,124.61 259.98,111.34 271.23,103.54 280.47,116.81 269.21,124.61" type="building"/>
   <poly color="red" fill="1" id="199082216" layer="-1.00" shape="247.57,97.60 235.54,80.92 245.28,73.95 257.30,90.63 247.57,97.60" type="building"/>
   <poly color="red" fill="1" id="199082218" layer="-1.00" shape="283.42,115.55 273.69,99.90 286.40,92.05 296.12,107.70 283.42,115.55" type="building"/>
   <poly color="red" fill="1" id="199082219" layer="-1.00" shape="356.48,247.65 357.12,238.95 364.70,239.51 364.05,248.20 356.48,247.65" type="building"/>
   <poly color="red" fill="1" id="199082220" layer="-1.00" shape="369.57,230.47 371.93,220.39 382.08,222.76 379.72,232.84 369.57,230.47" type="building"/>
   <poly color="red" fill="1" id="199082222" layer="-1.00" shape="303.21,307.31 313.81,305.52 315.04,310.88 303.72,312.59 303.21,307.31" type="building"/>
   <poly color="red" fill="1" id="199082223" layer="-1.00" shape="279.52,262.22 277.60,248.24 291.35,246.54 293.05,260.37 279.52,262.22" type="building"/>
   <poly color="red" fill="1" id="199082224" layer="-1.00" shape="203.69,28.11 197.07,15.63 207.27,10.25 213.89,22.73 203.69,28.11" type="building"/>
   <poly color="red" fill="1" id="199082225" layer="-1.00" shape="372.90,132.75 375.22,124.10 381.90,125.89 379.58,134.53 372.90,132.75" type="building"/>
   <poly color="red" fill="1" id="199082226" layer="-1.00" shape="366.02,248.11 368.28,238.92 377.40,241.13 375.14,250.34 366.02,248.11" type="building"/>
   <poly color="red" fill="1" id="199082227" layer="-1.00" shape="216.67,144.57 196.65,110.48 201.84,107.45 221.86,141.54 216.67,144.57" type="building"/>
   <poly color="red" fill="1" id="199082229" layer="-1.00" shape="198.18,36.74 195.38,30.96 201.56,27.99 204.36,33.76 198.18,36.74" type="building"/>
   <poly color="red" fill="1" id="199082231" layer="-1.00" shape="311.28,182.31 302.76,167.05 312.14,161.84 320.66,177.11 311.28,182.31" type="building"/>
   <poly color="red" fill="1" id="199082232" layer="-1.00" shape="354.80,170.36 355.90,162.55 364.04,163.70 362.93,171.51 354.80,170.36" type="building"/>
   <poly color="red" fill="1" id="199082233" layer="-1.00" shape="243.38,318.30 242.44,306.68 248.58,306.18 249.53,317.79 243.38,318.30" type="building"/>
   <poly color="red" fill="1" id="199082235" layer="-1.00" shape="250.95,53.39 243.55,42.69 250.90,37.52 258.36,48.28 250.95,53.39" type="building"/>
   <poly color="red" fill="1" id="199082238" layer="-1.00" shape="250.95,268.83 249.32,258.12 259.56,256.56 261.20,267.29 250.95,268.83" type="building"/>
   <poly color="red" fill="1" id="199082244" layer="-1.00" shape="234.09,275.23 240.51,274.41 239.56,267.05 233.14,267.88 234.09,275.23" type="building"/>
   <poly color="red" fill="1" id="199082249" layer="-1.00" shape="220.21,178.95 216.26,165.59 229.31,161.76 233.25,175.11 220.21,178.95" type="building"/>
   <poly color="red" fill="1" id="199082252" layer="-1.00" shape="128.42,340.78 128.83,324.20 134.62,324.34 134.20,340.93 128.42,340.78" type="building"/>
   <poly color="red" fill="1" id="199082254" layer="-1.00" shape="258.33,325.87 257.66,314.65 266.06,314.16 266.73,325.37 258.33,325.87" type="building"/>
   <poly color="red" fill="1" id="199082255" layer="-1.00" shape="309.76,254.87 306.52,247.88 313.91,244.46 317.16,251.44 309.76,254.87" type="building"/>
   <poly color="red" fill="1" id="199082256" layer="-1.00" shape="321.39,278.31 316.17,268.76 324.53,264.21 329.76,273.76 321.39,278.31" type="building"/>
   <poly color="red" fill="1" id="199082260" layer="-1.00" shape="322.97,299.25 317.58,288.77 331.78,281.51 337.17,292.00 322.97,299.25" type="building"/>
   <poly color="red" fill="1" id="199082265" layer="-1.00" shape="398.81,108.93 395.93,107.53 398.32,100.31 402.72,102.71 398.81,108.93" type="building"/>
   <poly color="red" fill="1" id="199082269" layer="-1.00" shape="285.17,289.14 283.21,272.10 295.96,270.63 297.92,287.68 285.17,289.14" type="building"/>
   <poly color="red" fill="1" id="199082270" layer="-1.00" shape="336.15,222.52 332.82,214.08 338.47,211.08 341.85,219.93 336.15,222.52" type="building"/>
   <poly color="red" fill="1" id="199082271" layer="-1.00" shape="335.17,33.89 327.07,23.31 336.13,16.43 344.22,27.02 335.17,33.89" type="building"/>
   <poly color="red" fill="1" id="199082272" layer="-1.00" shape="360.75,256.07 361.20,250.10 370.58,250.80 370.13,256.76 360.75,256.07" type="building"/>
   <poly color="red" fill="1" id="199082273" layer="-1.00" shape="375.98,208.67 376.08,202.08 384.53,202.22 384.42,208.80 375.98,208.67" type="building"/>
   <poly color="red" fill="1" id="199082274" layer="-1.00" shape="343.57,147.63 363.25,151.12 364.60,143.60 344.92,140.09 343.57,147.63" type="building"/>
   <poly color="red" fill="1" id="199082275" layer="-1.00" shape="119.47,167.46 119.75,158.82 130.23,159.15 129.95,167.80 119.47,167.46" type="building"/>
   <poly color="red" fill="1" id="199082276" layer="-1.00" shape="224.99,356.18 225.10,350.57 235.55,350.78 235.44,356.39 224.99,356.18" type="building"/>
   <poly color="red" fill="1" id="199082277" layer="-1.00" shape="280.62,207.11 276.82,196.79 286.25,193.34 290.05,203.66 280.62,207.11" type="building"/>
   <poly color="red" fill="1" id="199082278" layer="-1.00" shape="241.29,199.28 250.67,196.08 248.35,189.31 238.97,192.51 241.29,199.28" type="building"/>
   <poly color="red" fill="1" id="199082279" layer="-1.00" shape="209.29,290.44 205.93,253.20 211.59,252.70 214.95,289.93 209.29,290.44" type="building"/>
   <poly color="red" fill="1" id="199082280" layer="-1.00" shape="256.87,87.78 251.93,81.17 256.81,77.54 261.76,84.14 256.87,87.78" type="building"/>
   <poly color="red" fill="1" id="199082283" layer="-1.00" shape="259.10,66.75 251.23,55.80 260.33,49.29 268.21,60.24 259.10,66.75" type="building"/>
   <poly color="red" fill="1" id="199082284" layer="-1.00" shape="284.96,319.96 284.52,313.81 290.99,313.35 291.43,319.50 284.96,319.96" type="building"/>
   <poly color="red" fill="1" id="199082285" layer="-1.00" shape="362.50,186.30 368.42,187.06 367.64,193.15 362.07,192.03 362.50,186.30" type="building"/>
   <poly color="red" fill="1" id="199082287" layer="-1.00" shape="226.75,79.66 221.95,73.97 228.20,69.02 232.30,74.41 226.75,79.66" type="building"/>
   <poly color="red" fill="1" id="199082290" layer="-1.00" shape="318.03,55.94 313.83,51.43 317.98,47.58 322.19,52.08 318.03,55.94" type="building"/>
   <poly color="red" fill="1" id="199082293" layer="-1.00" shape="298.13,240.76 292.83,230.76 303.46,225.16 308.76,235.16 298.13,240.76" type="building"/>
   <poly color="red" fill="1" id="199082297" layer="-1.00" shape="383.58,138.92 385.82,130.54 389.97,131.64 387.73,140.02 383.58,138.92" type="building"/>
   <poly color="red" fill="1" id="199082298" layer="-1.00" shape="229.79,236.21 228.15,225.40 235.04,224.35 236.69,235.17 229.79,236.21" type="building"/>
   <poly color="red" fill="1" id="199082301" layer="-1.00" shape="237.22,184.22 234.26,175.87 240.62,173.63 243.59,181.98 237.22,184.22" type="building"/>
   <poly color="red" fill="1" id="199082302" layer="-1.00" shape="190.81,3.65 185.21,-7.00 200.01,-1.17 190.81,3.65" type="building"/>
   <poly color="red" fill="1" id="199082303" layer="-1.00" shape="80.75,277.37 82.46,263.27 99.93,265.37 98.56,277.35 98.14,279.46 80.75,277.37" type="building"/>
   <poly color="red" fill="1" id="199082304" layer="-1.00" shape="245.22,68.71 241.09,63.85 242.64,62.54 244.15,61.26 248.29,66.13 245.22,68.71" type="building"/>
   <poly color="red" fill="1" id="199082306" layer="-1.00" shape="360.97,214.80 361.28,210.43 361.75,203.67 372.21,204.40 371.44,215.52 360.97,214.80" type="building"/>
   <poly color="red" fill="1" id="199082307" layer="-1.00" shape="98.62,202.28 101.10,188.01 118.41,190.99 116.13,204.06 115.93,205.26 98.62,202.28" type="building"/>
   <poly color="red" fill="1" id="199082310" layer="-1.00" shape="119.55,156.38 120.04,146.74 132.32,147.36 132.01,154.19 131.79,156.99 119.55,156.38" type="building"/>
   <poly color="red" fill="1" id="199082311" layer="-1.00" shape="251.41,296.67 250.91,292.28 256.51,291.64 257.01,295.99 255.55,296.21 251.41,296.67" type="building"/>
   <poly color="red" fill="1" id="199082312" layer="-1.00" shape="76.02,315.14 76.86,302.68 94.05,303.82 93.40,314.15 93.08,316.27 76.02,315.14" type="building"/>
   <poly color="red" fill="1" id="199082316" layer="-1.00" shape="320.70,199.31 315.29,189.45 324.48,184.44 329.80,194.15 326.42,195.83 320.70,199.31" type="building"/>
   <poly color="red" fill="1" id="199082321" layer="-1.00" shape="118.41,190.99 119.03,189.25 138.15,192.84 135.62,207.67 116.13,204.06 118.41,190.99" type="building"/>
   <poly color="red" fill="1" id="199082323" layer="-1.00" shape="403.50,114.71 397.53,110.99 398.81,108.93 402.72,102.71 408.70,106.44 403.50,114.71" type="building"/>
   <poly color="red" fill="1" id="199082326" layer="-1.00" shape="186.36,153.20 186.25,154.95 204.85,156.05 205.54,144.43 186.94,143.34 186.36,153.20" type="building"/>
   <poly color="red" fill="1" id="199082330" layer="-1.00" shape="337.13,234.31 332.52,224.17 336.15,222.52 341.85,219.93 346.48,230.09 337.13,234.31" type="building"/>
   <poly color="red" fill="1" id="199082334" layer="-1.00" shape="284.66,219.52 285.70,225.74 284.47,225.95 279.38,226.79 278.34,220.57 284.66,219.52" type="building"/>
   <poly color="red" fill="1" id="199082335" layer="-1.00" shape="231.30,70.78 221.50,57.47 232.80,49.19 242.64,62.54 241.09,63.85 231.30,70.78" type="building"/>
   <poly color="red" fill="1" id="199082336" layer="-1.00" shape="246.81,360.65 247.24,352.65 253.18,352.97 252.87,359.10 252.75,360.97 246.81,360.65" type="building"/>
   <poly color="red" fill="1" id="199082337" layer="-1.00" shape="130.11,316.42 136.54,316.82 136.85,302.40 130.99,302.05 130.87,304.04 130.11,316.42" type="building"/>
   <poly color="red" fill="1" id="199082338" layer="-1.00" shape="330.41,145.20 332.49,133.63 345.66,135.98 344.92,140.09 343.57,147.63 330.41,145.20" type="building"/>
   <poly color="red" fill="1" id="199082339" layer="-1.00" shape="92.17,343.07 92.18,341.79 128.58,342.14 128.45,355.29 92.06,354.94 92.17,343.07" type="building"/>
   <poly color="red" fill="1" id="199082341" layer="-1.00" shape="253.18,352.97 253.32,350.19 263.71,350.71 263.27,359.62 252.87,359.10 253.18,352.97" type="building"/>
   <poly color="red" fill="1" id="199082342" layer="-1.00" shape="89.81,239.81 92.40,225.20 108.62,228.06 106.53,240.29 105.96,242.66 89.81,239.81" type="building"/>
   <poly color="red" fill="1" id="199082343" layer="-1.00" shape="256.96,306.01 255.55,296.21 257.01,295.99 263.87,295.01 265.28,304.82 256.96,306.01" type="building"/>
   <poly color="red" fill="1" id="199082344" layer="-1.00" shape="313.81,305.52 313.20,303.66 319.77,302.14 322.12,308.47 315.04,310.88 313.81,305.52" type="building"/>
   <poly color="red" fill="1" id="199082345" layer="-1.00" shape="422.63,89.12 425.82,90.56 427.98,89.17 427.67,86.56 425.27,84.69 422.63,89.12" type="building"/>
   <poly color="red" fill="1" id="199082346" layer="-1.00" shape="324.99,333.16 319.33,313.26 329.50,310.38 330.82,315.02 335.16,330.27 324.99,333.16" type="building"/>
   <poly color="red" fill="1" id="199082347" layer="-1.00" shape="328.57,199.32 326.42,195.83 320.70,199.31 319.02,200.34 321.17,203.84 328.57,199.32" type="building"/>
   <poly color="red" fill="1" id="199082348" layer="-1.00" shape="142.41,231.78 144.64,218.65 150.63,219.66 148.40,232.80 144.88,232.20 142.41,231.78" type="building"/>
   <poly color="red" fill="1" id="199082349" layer="-1.00" shape="247.55,250.54 247.00,246.11 248.32,245.94 247.57,239.88 256.83,238.75 258.11,249.26 247.55,250.54" type="building"/>
   <poly color="red" fill="1" id="199082351" layer="-1.00" shape="315.44,265.06 313.30,260.72 320.59,257.15 321.97,259.94 317.08,262.34 317.84,263.88 315.44,265.06" type="building"/>
   <poly color="red" fill="1" id="199082352" layer="-1.00" shape="238.24,351.14 238.41,345.97 242.58,346.11 242.80,339.75 248.89,339.96 248.49,351.50 238.24,351.14" type="building"/>
   <poly color="red" fill="1" id="199082353" layer="-1.00" shape="296.65,313.51 296.17,309.30 300.04,308.82 299.89,307.60 303.21,307.31 303.72,312.59 296.65,313.51" type="building"/>
   <poly color="red" fill="1" id="199082354" layer="-1.00" shape="308.62,4.66 304.31,-1.19 314.83,-8.88 323.85,3.40 316.82,8.53 312.11,2.12 308.62,4.66" type="building"/>
   <poly color="red" fill="1" id="199082355" layer="-1.00" shape="151.46,142.10 151.78,138.86 187.16,140.57 186.94,143.34 186.36,153.20 151.03,151.68 151.46,142.10" type="building"/>
   <poly color="red" fill="1" id="199082356" layer="-1.00" shape="78.59,347.10 78.68,342.77 92.17,343.07 92.06,354.94 91.89,356.39 78.39,356.09 78.59,347.10" type="building"/>
   <poly color="red" fill="1" id="199082357" layer="-1.00" shape="225.36,6.83 221.06,-2.87 227.76,-5.83 228.95,-3.13 230.09,-3.64 233.20,3.38 225.36,6.83" type="building"/>
   <poly color="red" fill="1" id="199082358" layer="-1.00" shape="108.62,228.06 108.96,226.09 127.40,228.78 124.83,242.95 106.53,240.29 108.62,228.06" type="building"/>
   <poly color="red" fill="1" id="199082359" layer="-1.00" shape="277.60,248.24 276.16,248.43 274.96,238.83 286.10,237.23 290.13,236.82 291.35,246.54 277.60,248.24" type="building"/>
   <poly color="red" fill="1" id="199082360" layer="-1.00" shape="309.40,41.23 301.70,35.34 299.60,37.48 302.59,39.68 300.39,42.48 305.70,46.47 309.40,41.23" type="building"/>
   <poly color="red" fill="1" id="199082361" layer="-1.00" shape="294.94,42.31 284.32,32.06 291.91,24.25 302.52,34.49 301.70,35.34 299.60,37.48 294.94,42.31" type="building"/>
   <poly color="red" fill="1" id="199082362" layer="-1.00" shape="350.09,192.85 350.95,181.21 362.81,182.08 362.50,186.30 362.07,192.03 361.95,193.73 350.09,192.85" type="building"/>
   <poly color="red" fill="1" id="199082363" layer="-1.00" shape="288.66,310.21 287.15,297.78 298.53,296.41 299.89,307.60 300.04,308.82 296.17,309.30 288.66,310.21" type="building"/>
   <poly color="red" fill="1" id="199082364" layer="-1.00" shape="274.96,238.83 273.33,239.07 271.72,227.90 279.38,226.79 284.47,225.95 286.10,237.23 274.96,238.83" type="building"/>
   <poly color="red" fill="1" id="199082365" layer="-1.00" shape="347.72,326.40 342.30,312.08 340.72,307.89 344.34,306.53 352.60,303.42 359.61,321.93 347.72,326.40" type="building"/>
   <poly color="red" fill="1" id="199082369" layer="-1.00" shape="343.63,127.13 344.40,121.78 340.03,121.15 341.43,111.37 355.47,113.36 353.30,128.51 343.63,127.13" type="building"/>
   <poly color="red" fill="1" id="199082372" layer="-1.00" shape="231.19,204.34 226.84,191.77 237.44,188.12 238.97,192.51 241.29,199.28 241.79,200.69 231.19,204.34" type="building"/>
   <poly color="red" fill="1" id="199082385" layer="-1.00" shape="329.40,215.88 324.50,206.66 334.23,201.51 339.14,210.73 338.47,211.08 332.82,214.08 329.40,215.88" type="building"/>
   <poly color="red" fill="1" id="199082390" layer="-1.00" shape="324.39,69.05 314.69,59.42 318.03,55.94 322.19,52.08 323.01,51.11 332.70,60.75 324.39,69.05" type="building"/>
   <poly color="red" fill="1" id="199082394" layer="-1.00" shape="132.32,147.36 132.60,141.26 151.46,142.10 151.03,151.68 150.88,155.04 132.01,154.19 132.32,147.36" type="building"/>
   <poly color="red" fill="1" id="199082395" layer="-1.00" shape="323.02,172.06 319.02,162.25 316.55,163.26 313.59,156.04 319.51,153.99 329.11,155.84 333.62,167.76 327.32,170.32 323.02,172.06" type="building"/>
   <poly color="red" fill="1" id="199082396" layer="-1.00" shape="59.98,359.90 60.07,346.98 78.59,347.10 78.39,356.09 78.57,357.04 70.43,356.98 70.41,359.98 59.98,359.90" type="building"/>
   <poly color="red" fill="1" id="199082397" layer="-1.00" shape="419.74,93.95 408.29,87.14 411.44,81.87 414.95,83.94 417.32,79.97 425.27,84.69 422.63,89.12 419.74,93.95" type="building"/>
   <poly color="red" fill="1" id="199082398" layer="-1.00" shape="402.55,132.16 393.77,127.32 398.16,119.42 404.72,123.03 409.37,114.65 419.70,120.34 414.48,129.74 406.38,125.27 402.55,132.16" type="building"/>
   <poly color="red" fill="1" id="199082399" layer="-1.00" shape="254.16,175.41 253.41,168.10 248.90,168.56 247.51,155.08 257.50,154.06 258.63,165.07 260.69,164.86 261.69,174.65 254.16,175.41" type="building"/>
   <poly color="red" fill="1" id="199082400" layer="-1.00" shape="85.03,205.88 86.05,199.53 86.71,199.64 87.56,194.37 93.11,195.24 92.18,201.08 91.34,200.94 90.41,206.74 85.03,205.88" type="building"/>