<?xml version="1.0" encoding="utf-8"?><!-- generated on 10/11/17 17:52:03 by SUMO netconvert Version 0.25.0
<?xml version="1.0" encoding="UTF-8"?>

<configuration xmlns:xsi="http://www.w3.org/2001/XMLSchema-instance" xsi:noNamespaceSchemaLocation="http://sumo.dlr.de/xsd/netconvertConfiguration.xsd">

    <input>
        <type-files value="osmNetconvert.typ.xml"/>
        <osm-files value="EM_Sasbach_rural_800.osm"/>
    </input>

    <output>
        <output-file value="EM_Sasbach_rural_800.net.xml"/>
    </output>

    <projection>
        <proj.utm value="true"/>
    </projection>

    <edge_removal>
        <remove-edges.by-type value="highway.track,highway.unsurfaced,highway.raceway,highway.bridleway,highway.path,highway.footway,highway.pedestrian,highway.cycleway,highway.step,highway.steps,highway.stairs,highway.bus_guideway,highway.ford,railway.rail,railway.tram,railway.light_rail,railway.subway,railway.preserved,railway.narrow_gauge,railway.monorail,railway.funicular"/>
    </edge_removal>

</configuration>
-->
<net version="0.25">
   <location convBoundary="0.00,0.00,860.06,846.98" netOffset="-396732.41,-5332331.55" origBoundary="7.611805,48.135929,7.623449,48.143597" projParameter="+proj=utm +zone=32 +ellps=WGS84 +datum=WGS84 +units=m +no_defs"/>
   <type allow="pedestrian" id="highway.bridleway" numLanes="1" oneway="1" priority="1" speed="2.78" width="2.00"/>
   <type allow="bus" id="highway.bus_guideway" numLanes="1" oneway="1" priority="1" speed="8.33"/>
   <type allow="bicycle" id="highway.cycleway" numLanes="1" oneway="0" priority="1" speed="5.56" width="1.00"/>
   <type allow="pedestrian" id="highway.footway" numLanes="1" oneway="1" priority="1" speed="8.33" width="2.00"/>
   <type allow="army" id="highway.ford" numLanes="1" oneway="0" priority="1" speed="2.78"/>
   <type disallow="tram rail_urban rail rail_electric ship" id="highway.living_street" numLanes="1" oneway="0" priority="3" speed="2.78"/>
   <type allow="private emergency authority army vip passenger hov taxi bus coach delivery truck trailer motorcycle evehicle custom1 custom2" id="highway.motorway" numLanes="2" oneway="1" priority="13" speed="44.44"/>
   <type allow="private emergency authority army vip passenger hov taxi bus coach delivery truck trailer motorcycle evehicle custom1 custom2" id="highway.motorway_link" numLanes="1" oneway="1" priority="12" speed="22.22"/>
   <type allow="bicycle pedestrian" id="highway.path" numLanes="1" oneway="1" priority="1" speed="2.78" width="2.00"/>
   <type allow="pedestrian" id="highway.pedestrian" numLanes="1" oneway="1" priority="1" speed="8.33" width="2.00"/>
   <type disallow="tram rail_urban rail rail_electric ship" id="highway.primary" numLanes="2" oneway="0" priority="9" speed="27.78"/>
   <type disallow="tram rail_urban rail rail_electric ship" id="highway.primary_link" numLanes="1" oneway="0" priority="8" speed="22.22"/>
   <type allow="vip" id="highway.raceway" numLanes="2" oneway="0" priority="14" speed="83.33"/>
   <type disallow="tram rail_urban rail rail_electric ship" id="highway.residential" numLanes="1" oneway="0" priority="4" speed="13.89"/>
   <type disallow="tram rail_urban rail rail_electric ship" id="highway.secondary" numLanes="2" oneway="0" priority="7" speed="27.78"/>
   <type disallow="tram rail_urban rail rail_electric ship" id="highway.secondary_link" numLanes="1" oneway="0" priority="6" speed="22.22"/>
   <type allow="delivery bicycle pedestrian" id="highway.service" numLanes="1" oneway="0" priority="2" speed="5.56"/>
   <type disallow="tram rail_urban rail rail_electric ship" id="highway.services" numLanes="1" oneway="0" priority="1" speed="8.33"/>
   <type allow="pedestrian" id="highway.stairs" numLanes="1" oneway="1" priority="1" speed="1.39" width="2.00"/>
   <type allow="pedestrian" id="highway.step" numLanes="1" oneway="1" priority="1" speed="1.39" width="2.00"/>
   <type allow="pedestrian" id="highway.steps" numLanes="1" oneway="1" priority="1" speed="1.39" width="2.00"/>
   <type disallow="tram rail_urban rail rail_electric ship" id="highway.tertiary" numLanes="1" oneway="0" priority="6" speed="22.22"/>
   <type disallow="tram rail_urban rail rail_electric ship" id="highway.tertiary_link" numLanes="1" oneway="0" priority="5" speed="22.22"/>
   <type disallow="tram rail_urban rail rail_electric ship" id="highway.track" numLanes="1" oneway="0" priority="1" speed="5.56"/>
   <type disallow="tram rail_urban rail rail_electric bicycle pedestrian ship" id="highway.trunk" numLanes="2" oneway="0" priority="11" speed="27.78"/>
   <type disallow="tram rail_urban rail rail_electric bicycle pedestrian ship" id="highway.trunk_link" numLanes="1" oneway="0" priority="10" speed="22.22"/>
   <type disallow="tram rail_urban rail rail_electric ship" id="highway.unclassified" numLanes="1" oneway="0" priority="5" speed="13.89"/>
   <type disallow="tram rail_urban rail rail_electric ship" id="highway.unsurfaced" numLanes="1" oneway="0" priority="1" speed="8.33"/>
   <type allow="rail_urban" id="railway.light_rail" numLanes="1" oneway="1" priority="15" speed="27.78"/>
   <type allow="rail" id="railway.preserved" numLanes="1" oneway="1" priority="15" speed="27.78"/>
   <type allow="rail rail_electric" id="railway.rail" numLanes="1" oneway="1" priority="15" speed="83.33"/>
   <type allow="rail_urban" id="railway.subway" numLanes="1" oneway="1" priority="15" speed="27.78"/>
   <type allow="tram" id="railway.tram" numLanes="1" oneway="1" priority="15" speed="13.89"/>
   <edge function="internal" id=":135902549_0">
      <lane disallow="tram rail_urban rail rail_electric ship" id=":135902549_0_0" index="0" length="0.18" shape="665.21,347.08 665.03,347.12" speed="22.22"/>
   </edge>
   <edge function="internal" id=":135902549_1">
      <lane disallow="tram rail_urban rail rail_electric ship" id=":135902549_1_0" index="0" length="2.41" shape="665.21,347.08 663.80,346.60 663.19,345.90" speed="22.22"/>
   </edge>
   <edge function="internal" id=":135902549_4">
      <lane id=":135902549_4_0" index="0" length="2.41" shape="663.19,345.90 663.37,345.00 664.36,343.88" speed="22.22"/>
   </edge>
   <edge function="internal" id=":135902549_2">
      <lane disallow="tram rail_urban rail rail_electric ship" id=":135902549_2_0" index="0" length="0.10" shape="664.31,343.89 664.36,343.88" speed="22.22"/>
   </edge>
   <edge function="internal" id=":135902549_3">
      <lane disallow="tram rail_urban rail rail_electric ship" id=":135902549_3_0" index="0" length="2.41" shape="664.31,343.89 665.70,344.43 666.29,345.15" speed="22.22"/>
   </edge>
   <edge function="internal" id=":135902549_5">
      <lane id=":135902549_5_0" index="0" length="2.41" shape="666.29,345.15 666.06,346.04 665.03,347.12" speed="22.22"/>
   </edge>
   <edge function="internal" id=":1578784238_0">
      <lane disallow="tram rail_urban rail rail_electric ship" id=":1578784238_0_0" index="0" length="1.38" shape="266.83,420.46 265.70,419.67" speed="27.78"/>
   </edge>
   <edge function="internal" id=":1578784238_1">
      <lane disallow="tram rail_urban rail rail_electric ship" id=":1578784238_1_0" index="0" length="2.41" shape="266.83,420.46 266.09,419.17 266.10,418.24" speed="27.78"/>
   </edge>
   <edge function="internal" id=":1578784238_4">
      <lane id=":1578784238_4_0" index="0" length="2.41" shape="266.10,418.24 266.84,417.69 268.31,417.51" speed="27.78"/>
   </edge>
   <edge function="internal" id=":1578784238_2">
      <lane disallow="tram rail_urban rail rail_electric ship" id=":1578784238_2_0" index="0" length="0.45" shape="267.94,417.26 268.31,417.51" speed="27.78"/>
   </edge>
   <edge function="internal" id=":1578784238_3">
      <lane disallow="tram rail_urban rail rail_electric ship" id=":1578784238_3_0" index="0" length="2.41" shape="267.94,417.26 268.29,418.70 268.03,419.59" speed="27.78"/>
   </edge>
   <edge function="internal" id=":1578784238_5">
      <lane id=":1578784238_5_0" index="0" length="2.41" shape="268.03,419.59 267.17,419.91 265.70,419.67" speed="27.78"/>
   </edge>
   <edge function="internal" id=":2136653523_0">
      <lane disallow="tram rail_urban rail rail_electric ship" id=":2136653523_0_0" index="0" length="4.82" shape="25.52,43.22 26.09,41.85 26.82,41.29 27.71,41.54 28.76,42.59" speed="27.78"/>
   </edge>
   <edge function="internal" id=":2136654406_0">
      <lane disallow="tram rail_urban rail rail_electric ship" id=":2136654406_0_0" index="0" length="0.10" shape="221.54,170.55 221.54,170.55" speed="8.33"/>
   </edge>
   <edge function="internal" id=":2136654406_1">
      <lane disallow="tram rail_urban rail rail_electric ship" id=":2136654406_1_0" index="0" length="2.41" shape="221.54,170.55 220.25,169.81 219.78,169.01" speed="8.33"/>
   </edge>
   <edge function="internal" id=":2136654406_4">
      <lane id=":2136654406_4_0" index="0" length="2.41" shape="219.78,169.01 220.14,168.16 221.31,167.25" speed="8.33"/>
   </edge>
   <edge function="internal" id=":2136654406_2">
      <lane disallow="tram rail_urban rail rail_electric ship" id=":2136654406_2_0" index="0" length="0.10" shape="221.32,167.25 221.31,167.25" speed="8.33"/>
   </edge>
   <edge function="internal" id=":2136654406_3">
      <lane disallow="tram rail_urban rail rail_electric ship" id=":2136654406_3_0" index="0" length="2.41" shape="221.32,167.25 222.61,167.99 223.07,168.79" speed="8.33"/>
   </edge>
   <edge function="internal" id=":2136654406_5">
      <lane id=":2136654406_5_0" index="0" length="2.41" shape="223.07,168.79 222.71,169.64 221.54,170.55" speed="8.33"/>
   </edge>
   <edge function="internal" id=":2136656093_0">
      <lane disallow="tram rail_urban rail rail_electric ship" id=":2136656093_0_0" index="0" length="4.82" shape="816.46,305.70 817.86,306.21 818.45,306.92 818.25,307.81 817.24,308.91" speed="22.22"/>
   </edge>
   <edge function="internal" id=":2136656505_0">
      <lane disallow="tram rail_urban rail rail_electric ship" id=":2136656505_0_0" index="0" length="0.10" shape="671.77,345.61 671.76,345.61" speed="22.22"/>
   </edge>
   <edge function="internal" id=":2136656505_1">
      <lane disallow="tram rail_urban rail rail_electric ship" id=":2136656505_1_0" index="0" length="2.41" shape="671.77,345.61 670.37,345.11 669.77,344.40" speed="22.22"/>
   </edge>
   <edge function="internal" id=":2136656505_4">
      <lane id=":2136656505_4_0" index="0" length="2.41" shape="669.77,344.40 669.98,343.50 670.98,342.41" speed="22.22"/>
   </edge>
   <edge function="internal" id=":2136656505_2">
      <lane disallow="tram rail_urban rail rail_electric ship" id=":2136656505_2_0" index="0" length="0.10" shape="671.02,342.40 670.98,342.41" speed="22.22"/>
   </edge>
   <edge function="internal" id=":2136656505_3">
      <lane disallow="tram rail_urban rail rail_electric ship" id=":2136656505_3_0" index="0" length="2.41" shape="671.02,342.40 672.41,342.92 673.00,343.64" speed="22.22"/>
   </edge>
   <edge function="internal" id=":2136656505_5">
      <lane id=":2136656505_5_0" index="0" length="2.41" shape="673.00,343.64 672.78,344.53 671.76,345.61" speed="22.22"/>
   </edge>
   <edge function="internal" id=":2136656529_0">
      <lane disallow="tram rail_urban rail rail_electric ship" id=":2136656529_0_0" index="0" length="10.77" shape="648.53,351.21 645.52,351.90 643.28,352.39 641.03,352.86 638.01,353.49" speed="22.22"/>
   </edge>
   <edge function="internal" id=":2136656529_1">
      <lane disallow="tram rail_urban rail rail_electric ship" id=":2136656529_1_0" index="0" length="4.60" shape="648.53,351.21 646.34,351.26 644.06,350.48" speed="18.06"/>
   </edge>
   <edge function="internal" id=":2136656529_2">
      <lane disallow="tram rail_urban rail rail_electric ship" id=":2136656529_2_0" index="0" length="2.41" shape="648.53,351.21 647.14,350.69 646.55,349.98" speed="22.22"/>
   </edge>
   <edge function="internal" id=":2136656529_9">
      <lane id=":2136656529_9_0" index="0" length="6.99" shape="644.06,350.48 643.96,350.44 641.37,348.75 638.59,346.19" speed="18.06"/>
   </edge>
   <edge function="internal" id=":2136656529_10">
      <lane id=":2136656529_10_0" index="0" length="2.41" shape="646.55,349.98 646.76,349.08 647.78,347.99" speed="22.22"/>
   </edge>
   <edge function="internal" id=":2136656529_3">
      <lane disallow="tram rail_urban rail rail_electric ship" id=":2136656529_3_0" index="0" length="8.20" shape="640.96,343.90 643.06,345.90 644.90,347.25 646.47,347.94 647.78,347.99" speed="18.06"/>
   </edge>
   <edge function="internal" id=":2136656529_4">
      <lane disallow="tram rail_urban rail rail_electric ship" id=":2136656529_4_0" index="0" length="13.95" shape="640.96,343.90 643.47,347.30 643.82,350.03 642.00,352.09 638.01,353.49" speed="18.06"/>
   </edge>
   <edge function="internal" id=":2136656529_5">
      <lane disallow="tram rail_urban rail rail_electric ship" id=":2136656529_5_0" index="0" length="4.82" shape="640.96,343.90 641.23,345.37 640.92,346.24 640.04,346.51 638.59,346.19" speed="13.89"/>
   </edge>
   <edge function="internal" id=":2136656529_6">
      <lane disallow="tram rail_urban rail rail_electric ship" id=":2136656529_6_0" index="0" length="5.92" shape="637.33,350.26 639.02,349.67 639.80,348.79 639.65,347.63 638.59,346.19" speed="18.06"/>
   </edge>
   <edge function="internal" id=":2136656529_7">
      <lane disallow="tram rail_urban rail rail_electric ship" id=":2136656529_7_0" index="0" length="10.69" shape="637.33,350.26 640.34,349.63 642.56,349.17 644.78,348.68 647.78,347.99" speed="22.22"/>
   </edge>
   <edge function="internal" id=":2136656529_8">
      <lane disallow="tram rail_urban rail rail_electric ship" id=":2136656529_8_0" index="0" length="2.41" shape="637.33,350.26 638.71,350.81 639.28,351.53" speed="22.22"/>
   </edge>
   <edge function="internal" id=":2136656529_11">
      <lane id=":2136656529_11_0" index="0" length="2.41" shape="639.28,351.53 639.05,352.43 638.01,353.49" speed="22.22"/>
   </edge>
   <edge function="internal" id=":2144721395_0">
      <lane disallow="tram rail_urban rail rail_electric ship" id=":2144721395_0_0" index="0" length="0.52" shape="489.58,650.03 489.07,650.16" speed="13.89"/>
   </edge>
   <edge function="internal" id=":2144721395_1">
      <lane disallow="tram rail_urban rail rail_electric ship" id=":2144721395_1_0" index="0" length="2.41" shape="489.58,650.03 488.14,649.63 487.49,648.98" speed="13.89"/>
   </edge>
   <edge function="internal" id=":2144721395_4">
      <lane id=":2144721395_4_0" index="0" length="2.41" shape="487.49,648.98 487.62,648.07 488.53,646.90" speed="13.89"/>
   </edge>
   <edge function="internal" id=":2144721395_2">
      <lane disallow="tram rail_urban rail rail_electric ship" id=":2144721395_2_0" index="0" length="0.17" shape="488.37,646.94 488.53,646.90" speed="13.89"/>
   </edge>
   <edge function="internal" id=":2144721395_3">
      <lane disallow="tram rail_urban rail rail_electric ship" id=":2144721395_3_0" index="0" length="2.41" shape="488.37,646.94 489.76,647.48 490.33,648.20" speed="13.89"/>
   </edge>
   <edge function="internal" id=":2144721395_5">
      <lane id=":2144721395_5_0" index="0" length="2.41" shape="490.33,648.20 490.11,649.09 489.07,650.16" speed="13.89"/>
   </edge>
   <edge function="internal" id=":261621304_0">
      <lane disallow="tram rail_urban rail rail_electric ship" id=":261621304_0_0" index="0" length="5.26" shape="734.27,834.92 733.06,834.20 731.84,833.90 730.61,834.04 729.38,834.60" speed="27.78"/>
   </edge>
   <edge function="internal" id=":261621304_1">
      <lane disallow="tram rail_urban rail rail_electric ship" id=":261621304_1_0" index="0" length="2.70" shape="734.27,834.92 733.80,833.51 733.98,832.61 734.24,832.48" speed="27.78"/>
   </edge>
   <edge function="internal" id=":261621304_4">
      <lane id=":261621304_4_0" index="0" length="2.12" shape="734.24,832.48 734.81,832.21 736.30,832.31" speed="27.78"/>
   </edge>
   <edge function="internal" id=":261621304_2">
      <lane disallow="tram rail_urban rail rail_electric ship" id=":261621304_2_0" index="0" length="5.02" shape="735.30,827.78 734.94,829.14 734.98,830.35 735.43,831.41 736.30,832.31" speed="27.78"/>
   </edge>
   <edge function="internal" id=":261621304_3">
      <lane disallow="tram rail_urban rail rail_electric ship" id=":261621304_3_0" index="0" length="9.04" shape="735.30,827.78 729.38,834.60" speed="27.78"/>
   </edge>
   <edge function="internal" id=":261621306_0">
      <lane disallow="tram rail_urban rail rail_electric ship" id=":261621306_0_0" index="0" length="4.93" shape="406.23,423.83 405.47,422.71 404.53,422.04 403.43,421.82 402.15,422.04" speed="27.78"/>
   </edge>
   <edge function="internal" id=":261621306_1">
      <lane disallow="tram rail_urban rail rail_electric ship" id=":261621306_1_0" index="0" length="3.44" shape="406.23,423.83 405.38,421.33 405.41,420.53" speed="25.00"/>
   </edge>
   <edge function="internal" id=":261621306_2">
      <lane disallow="tram rail_urban rail rail_electric ship" id=":261621306_2_0" index="0" length="2.21" shape="406.23,423.83 406.41,422.35 406.84,421.77" speed="27.78"/>
   </edge>
   <edge function="internal" id=":261621306_9">
      <lane id=":261621306_9_0" index="0" length="6.34" shape="405.41,420.53 405.47,419.08 406.52,417.09 408.51,415.35" speed="25.00"/>
   </edge>
   <edge function="internal" id=":261621306_10">
      <lane id=":261621306_10_0" index="0" length="2.61" shape="406.84,421.77 406.96,421.61 407.88,421.61 409.18,422.34" speed="27.78"/>
   </edge>
   <edge function="internal" id=":261621306_3">
      <lane disallow="tram rail_urban rail rail_electric ship" id=":261621306_3_0" index="0" length="4.87" shape="410.31,418.12 409.32,418.98 408.80,419.97 408.75,421.09 409.18,422.34" speed="25.00"/>
   </edge>
   <edge function="internal" id=":261621306_4">
      <lane disallow="tram rail_urban rail rail_electric ship" id=":261621306_4_0" index="0" length="9.06" shape="410.31,418.12 402.15,422.04" speed="25.00"/>
   </edge>
   <edge function="internal" id=":261621306_5">
      <lane disallow="tram rail_urban rail rail_electric ship" id=":261621306_5_0" index="0" length="4.82" shape="410.31,418.12 408.83,418.10 408.03,417.64 407.93,416.72 408.51,415.35" speed="22.22"/>
   </edge>
   <edge function="internal" id=":261621306_6">
      <lane disallow="tram rail_urban rail rail_electric ship" id=":261621306_6_0" index="0" length="8.20" shape="401.13,418.90 408.51,415.35" speed="25.00"/>
   </edge>
   <edge function="internal" id=":261621306_7">
      <lane disallow="tram rail_urban rail rail_electric ship" id=":261621306_7_0" index="0" length="9.68" shape="401.13,418.90 403.66,418.45 405.85,418.88 407.69,420.17 409.18,422.34" speed="27.78"/>
   </edge>
   <edge function="internal" id=":261621306_8">
      <lane disallow="tram rail_urban rail rail_electric ship" id=":261621306_8_0" index="0" length="2.69" shape="401.13,418.90 402.56,419.30 403.21,419.96 403.16,420.24" speed="27.78"/>
   </edge>
   <edge function="internal" id=":261621306_11">
      <lane id=":261621306_11_0" index="0" length="2.13" shape="403.16,420.24 403.07,420.87 402.15,422.04" speed="27.78"/>
   </edge>
   <edge function="internal" id=":261621307_0">
      <lane disallow="tram rail_urban rail rail_electric ship" id=":261621307_0_0" index="0" length="0.78" shape="39.73,94.05 39.39,93.35" speed="27.78"/>
   </edge>
   <edge function="internal" id=":261621307_1">
      <lane disallow="tram rail_urban rail rail_electric ship" id=":261621307_1_0" index="0" length="2.41" shape="39.73,94.05 39.83,92.57 40.34,91.80" speed="27.78"/>
   </edge>
   <edge function="internal" id=":261621307_4">
      <lane id=":261621307_4_0" index="0" length="2.41" shape="40.34,91.80 41.26,91.75 42.59,92.41" speed="27.78"/>
   </edge>
   <edge function="internal" id=":261621307_2">
      <lane disallow="tram rail_urban rail rail_electric ship" id=":261621307_2_0" index="0" length="0.10" shape="42.56,92.43 42.59,92.41" speed="27.78"/>
   </edge>
   <edge function="internal" id=":261621307_3">
      <lane disallow="tram rail_urban rail rail_electric ship" id=":261621307_3_0" index="0" length="2.41" shape="42.56,92.43 42.12,93.85 41.44,94.47" speed="27.78"/>
   </edge>
   <edge function="internal" id=":261621307_5">
      <lane id=":261621307_5_0" index="0" length="2.41" shape="41.44,94.47 40.53,94.31 39.39,93.35" speed="27.78"/>
   </edge>
   <edge function="internal" id=":262351940_0">
      <lane allow="delivery bicycle pedestrian" id=":262351940_0_0" index="0" length="0.17" shape="761.50,327.46 761.44,327.30" speed="5.56"/>
   </edge>
   <edge function="internal" id=":262351940_1">
      <lane allow="delivery bicycle pedestrian" id=":262351940_1_0" index="0" length="2.41" shape="761.50,327.46 761.92,326.04 762.59,325.40" speed="5.56"/>
   </edge>
   <edge function="internal" id=":262351940_4">
      <lane id=":262351940_4_0" index="0" length="2.41" shape="762.59,325.40 763.50,325.55 764.65,326.50" speed="5.56"/>
   </edge>
   <edge function="internal" id=":262351940_2">
      <lane allow="delivery bicycle pedestrian" id=":262351940_2_0" index="0" length="0.53" shape="764.47,326.00 764.65,326.50" speed="5.56"/>
   </edge>
   <edge function="internal" id=":262351940_3">
      <lane allow="delivery bicycle pedestrian" id=":262351940_3_0" index="0" length="2.41" shape="764.47,326.00 764.20,327.46 763.60,328.17" speed="5.56"/>
   </edge>
   <edge function="internal" id=":262351940_5">
      <lane id=":262351940_5_0" index="0" length="2.41" shape="763.60,328.17 762.68,328.11 761.44,327.30" speed="5.56"/>
   </edge>
   <edge function="internal" id=":2629104144_0">
      <lane allow="delivery bicycle pedestrian" id=":2629104144_0_0" index="0" length="4.82" shape="859.97,320.16 861.25,320.91 861.71,321.71 861.35,322.56 860.16,323.45" speed="5.56"/>
   </edge>
   <edge function="internal" id=":2629104186_0">
      <lane allow="delivery bicycle pedestrian" id=":2629104186_0_0" index="0" length="9.64" shape="769.00,351.57 766.06,342.39" speed="5.56"/>
   </edge>
   <edge function="internal" id=":2629104186_1">
      <lane allow="delivery bicycle pedestrian" id=":2629104186_1_0" index="0" length="10.70" shape="769.00,351.57 768.47,348.65 769.03,346.33 770.68,344.60 773.42,343.47" speed="5.56"/>
   </edge>
   <edge function="internal" id=":2629104186_2">
      <lane allow="delivery bicycle pedestrian" id=":2629104186_2_0" index="0" length="4.82" shape="769.00,351.57 769.39,350.13 770.04,349.48 770.96,349.61 772.13,350.52" speed="5.56"/>
   </edge>
   <edge function="internal" id=":2629104186_3">
      <lane allow="delivery bicycle pedestrian" id=":2629104186_3_0" index="0" length="5.09" shape="774.23,346.67 772.93,347.21 772.15,348.03 771.88,349.13 772.13,350.52" speed="5.56"/>
   </edge>
   <edge function="internal" id=":2629104186_4">
      <lane allow="delivery bicycle pedestrian" id=":2629104186_4_0" index="0" length="10.41" shape="774.23,346.67 771.33,347.01 769.01,346.41 767.25,344.87 766.06,342.39" speed="5.56"/>
   </edge>
   <edge function="internal" id=":2629104186_5">
      <lane allow="delivery bicycle pedestrian" id=":2629104186_5_0" index="0" length="4.82" shape="774.23,346.67 772.83,346.18 772.23,345.48 772.42,344.58 773.42,343.47" speed="5.56"/>
   </edge>
   <edge function="internal" id=":2629104186_6">
      <lane allow="delivery bicycle pedestrian" id=":2629104186_6_0" index="0" length="5.27" shape="769.22,341.42 769.81,342.64 770.71,343.38 771.91,343.66 773.42,343.47" speed="5.56"/>
   </edge>
   <edge function="internal" id=":2629104186_7">
      <lane allow="delivery bicycle pedestrian" id=":2629104186_7_0" index="0" length="9.55" shape="769.22,341.42 772.13,350.52" speed="5.56"/>
   </edge>
   <edge function="internal" id=":2629104186_8">
      <lane allow="delivery bicycle pedestrian" id=":2629104186_8_0" index="0" length="4.82" shape="769.22,341.42 768.79,342.85 768.12,343.48 767.21,343.33 766.06,342.39" speed="5.56"/>
   </edge>
   <edge function="internal" id=":2629104242_0">
      <lane allow="delivery bicycle pedestrian" id=":2629104242_0_0" index="0" length="0.10" shape="800.40,440.18 800.40,440.18" speed="5.56"/>
   </edge>
   <edge function="internal" id=":2629104242_1">
      <lane allow="delivery bicycle pedestrian" id=":2629104242_1_0" index="0" length="2.41" shape="800.40,440.18 800.62,438.71 801.18,437.98" speed="5.56"/>
   </edge>
   <edge function="internal" id=":2629104242_4">
      <lane id=":2629104242_4_0" index="0" length="2.41" shape="801.18,437.98 802.11,438.00 803.38,438.77" speed="5.56"/>
   </edge>
   <edge function="internal" id=":2629104242_2">
      <lane allow="delivery bicycle pedestrian" id=":2629104242_2_0" index="0" length="0.10" shape="803.38,438.77 803.38,438.77" speed="5.56"/>
   </edge>
   <edge function="internal" id=":2629104242_3">
      <lane allow="delivery bicycle pedestrian" id=":2629104242_3_0" index="0" length="2.41" shape="803.38,438.77 803.17,440.24 802.60,440.96" speed="5.56"/>
   </edge>
   <edge function="internal" id=":2629104242_5">
      <lane id=":2629104242_5_0" index="0" length="2.41" shape="802.60,440.96 801.68,440.95 800.40,440.18" speed="5.56"/>
   </edge>
   <edge function="internal" id=":2629104296_0">
      <lane allow="delivery bicycle pedestrian" id=":2629104296_0_0" index="0" length="4.82" shape="846.40,480.70 847.08,482.02 847.03,482.94 846.27,483.46 844.79,483.58" speed="5.56"/>
   </edge>
   <edge function="internal" id=":2629104428_0">
      <lane disallow="tram rail_urban rail rail_electric ship" id=":2629104428_0_0" index="0" length="0.10" shape="754.56,799.79 754.56,799.79" speed="2.78"/>
   </edge>
   <edge function="internal" id=":2629104428_1">
      <lane disallow="tram rail_urban rail rail_electric ship" id=":2629104428_1_0" index="0" length="2.41" shape="754.56,799.79 754.47,798.31 754.88,797.48" speed="2.78"/>
   </edge>
   <edge function="internal" id=":2629104428_4">
      <lane id=":2629104428_4_0" index="0" length="2.41" shape="754.88,797.48 755.79,797.32 757.19,797.81" speed="2.78"/>
   </edge>
   <edge function="internal" id=":2629104428_2">
      <lane disallow="tram rail_urban rail rail_electric ship" id=":2629104428_2_0" index="0" length="0.10" shape="757.19,797.81 757.19,797.81" speed="2.78"/>
   </edge>
   <edge function="internal" id=":2629104428_3">
      <lane disallow="tram rail_urban rail rail_electric ship" id=":2629104428_3_0" index="0" length="2.41" shape="757.19,797.81 757.28,799.29 756.87,800.12" speed="2.78"/>
   </edge>
   <edge function="internal" id=":2629104428_5">
      <lane id=":2629104428_5_0" index="0" length="2.41" shape="756.87,800.12 755.96,800.29 754.56,799.79" speed="2.78"/>
   </edge>
   <edge function="internal" id=":2629104447_0">
      <lane disallow="tram rail_urban rail rail_electric ship" id=":2629104447_0_0" index="0" length="0.10" shape="708.32,810.89 708.32,810.89" speed="27.78"/>
   </edge>
   <edge function="internal" id=":2629104447_1">
      <lane disallow="tram rail_urban rail rail_electric ship" id=":2629104447_1_0" index="0" length="2.41" shape="708.32,810.89 707.99,809.44 708.25,808.56" speed="27.78"/>
   </edge>
   <edge function="internal" id=":2629104447_4">
      <lane id=":2629104447_4_0" index="0" length="2.41" shape="708.25,808.56 709.12,808.25 710.59,808.50" speed="27.78"/>
   </edge>
   <edge function="internal" id=":2629104447_2">
      <lane disallow="tram rail_urban rail rail_electric ship" id=":2629104447_2_0" index="0" length="0.10" shape="710.59,808.50 710.59,808.50" speed="27.78"/>
   </edge>
   <edge function="internal" id=":2629104447_3">
      <lane disallow="tram rail_urban rail rail_electric ship" id=":2629104447_3_0" index="0" length="2.41" shape="710.59,808.50 710.92,809.95 710.65,810.83" speed="27.78"/>
   </edge>
   <edge function="internal" id=":2629104447_5">
      <lane id=":2629104447_5_0" index="0" length="2.41" shape="710.65,810.83 709.78,811.14 708.32,810.89" speed="27.78"/>
   </edge>
   <edge function="internal" id=":2629104460_0">
      <lane disallow="tram rail_urban rail rail_electric ship" id=":2629104460_0_0" index="0" length="4.90" shape="735.82,814.09 735.13,814.97 734.80,816.02 734.83,817.25 735.22,818.65" speed="18.06"/>
   </edge>
   <edge function="internal" id=":2629104460_1">
      <lane disallow="tram rail_urban rail rail_electric ship" id=":2629104460_1_0" index="0" length="4.82" shape="735.82,814.09 734.35,814.31 733.49,813.98 733.24,813.09 733.61,811.65" speed="8.33"/>
   </edge>
   <edge function="internal" id=":2629104460_2">
      <lane disallow="tram rail_urban rail rail_electric ship" id=":2629104460_2_0" index="0" length="4.95" shape="728.96,812.07 730.30,812.51 731.52,812.59 732.62,812.30 733.61,811.65" speed="18.06"/>
   </edge>
   <edge function="internal" id=":2629104460_3">
      <lane disallow="tram rail_urban rail rail_electric ship" id=":2629104460_3_0" index="0" length="9.33" shape="728.96,812.07 731.04,813.23 732.78,814.72 734.17,816.52 735.22,818.65" speed="27.78"/>
   </edge>
   <edge function="internal" id=":270328638_0">
      <lane disallow="tram rail_urban rail rail_electric ship" id=":270328638_0_0" index="0" length="4.82" shape="2.95,742.12 1.62,742.78 0.70,742.73 0.19,741.97 0.08,740.48" speed="22.22"/>
   </edge>
   <edge function="internal" id=":270328639_0">
      <lane disallow="tram rail_urban rail rail_electric ship" id=":270328639_0_0" index="0" length="11.38" shape="80.32,532.24 77.45,533.54 75.54,535.09 74.02,537.13 72.34,539.89" speed="22.22"/>
   </edge>
   <edge function="internal" id=":270328639_1">
      <lane allow="delivery bicycle pedestrian" id=":270328639_1_0" index="0" length="13.24" shape="80.32,532.24 77.00,533.26 73.93,533.90 70.80,534.29 67.33,534.57" speed="13.89"/>
   </edge>
   <edge function="internal" id=":270328639_2">
      <lane disallow="tram rail_urban rail rail_electric ship" id=":270328639_2_0" index="0" length="4.12" shape="80.32,532.24 77.37,532.81 76.29,532.54" speed="18.06"/>
   </edge>