<?xml version="1.0" encoding="utf-8"?><!-- generated on 10/11/17 17:52:14 by SUMO polyconvert Version 0.25.0
<?xml version="1.0" encoding="UTF-8"?>

<configuration xmlns:xsi="http://www.w3.org/2001/XMLSchema-instance" xsi:noNamespaceSchemaLocation="http://sumo.dlr.de/xsd/polyconvertConfiguration.xsd">

    <input>
        <net-file value="EM_Sasbach_rural_800.net.xml"/>
        <osm-files value="EM_Sasbach_rural_800.osm"/>
        <type-file value="osmPolyconvert.typ.xml"/>
    </input>

    <output>
        <output-file value="EM_Sasbach_rural_800.poly.xml"/>
    </output>

    <projection>
        <proj.utm value="true"/>
    </projection>

    <processing>
        <poi-layer-offset value="5"/>
    </processing>

</configuration>
-->
<additional>
   <location convBoundary="-8.45,-0.00,870.16,858.04" netOffset="-396732.41,-5332331.55" origBoundary="7.611805,48.135906,7.623490,48.143597" projParameter="+proj=utm +zone=32 +ellps=WGS84 +datum=WGS84 +units=m +no_defs"/>
   <poly color="140,196,107" fill="1" id="203280000" layer="-4.00" shape="361.24,19.41 360.09,20.19 353.04,15.37 348.27,6.90 361.24,19.41" type="natural"/>
   <poly color="194,194,130" fill="0" id="203307270" layer="-3.00" shape="368.56,14.63 367.90,14.92 377.44,32.94 401.83,59.86 430.96,91.39 503.33,65.21 507.41,79.75 512.82,98.70 533.48,92.88 522.89,54.24 601.73,27.50 598.95,21.63 521.51,47.98 511.03,14.43 507.07,2.73" type="landuse"/>
   <poly color="194,194,130" fill="1" id="203421509" layer="-3.00" shape="466.32,153.58 461.09,139.87 453.24,131.44 444.04,122.93 447.69,121.67 435.25,108.04 403.43,74.23 400.31,75.95 371.25,43.04 368.86,42.95 350.35,23.62 341.83,15.14 353.04,15.37 360.09,20.19 361.24,19.41 367.90,14.92 377.44,32.94 401.83,59.86 430.96,91.39 456.44,117.94 478.54,141.29 501.72,165.13 526.51,185.37 583.16,240.52 630.74,293.80 639.33,297.77 642.43,304.95 678.72,344.98 717.60,395.62 729.73,411.40 748.80,429.00 769.67,448.39 791.81,465.00 822.80,483.84 836.31,490.36 852.98,498.39 865.09,503.39 852.71,505.33 828.65,494.22 804.88,481.14 772.43,459.58 747.85,440.46 681.86,372.90 663.78,349.12 658.08,341.90 635.81,347.74 593.06,304.44 584.18,293.53 597.89,279.95 590.07,272.49 479.90,167.25 466.32,153.58" type="landuse"/>
   <poly color="red" fill="1" id="203658170" layer="-1.00" shape="675.11,233.47 672.63,226.63 677.49,224.77 683.93,222.68 688.78,220.82 686.07,213.35 694.60,210.27 703.48,234.80 694.46,238.05 690.77,227.84 675.11,233.47" type="building"/>
   <poly color="red" fill="1" id="203658171" layer="-1.00" shape="55.26,301.78 42.29,262.77 84.68,248.76 79.29,232.53 111.16,222.00 122.91,262.64 96.04,271.80 99.22,284.17 66.59,295.73 67.28,297.80 55.26,301.78" type="building"/>
   <poly color="237,199,255" fill="1" id="203658171#1" layer="-1.00" shape="55.26,301.78 42.29,262.77 84.68,248.76 79.29,232.53 111.16,222.00 122.91,262.64 96.04,271.80 99.22,284.17 66.59,295.73 67.28,297.80 55.26,301.78" type="shop"/>
   <poly color="red" fill="1" id="203658173" layer="-1.00" shape="758.09,295.86 756.35,290.75 752.52,292.05 750.73,286.82 757.44,284.54 754.95,277.27 762.51,274.70 766.07,285.10 768.86,284.15 771.32,291.36 758.09,295.86" type="building"/>
   <poly color="red" fill="1" id="203658175" layer="-1.00" shape="724.43,310.86 723.10,306.66 721.63,307.12 718.99,298.73 727.61,296.01 724.44,285.92 732.45,283.16 734.09,282.73 740.05,301.64 734.20,303.47 735.44,307.40 724.43,310.86" type="building"/>
   <poly color="red" fill="1" id="203658178" layer="-1.00" shape="722.79,216.53 725.43,215.59 727.17,220.45 734.53,217.84 729.94,204.96 737.18,202.39 732.99,190.64 723.13,194.14 724.47,197.90 719.00,199.84 722.38,209.31 720.46,209.99 722.79,216.53" type="building"/>
   <poly color="red" fill="1" id="203658179" layer="-1.00" shape="322.64,37.36 318.22,33.15 323.25,27.91 327.66,32.12 322.64,37.36" type="building"/>
   <poly color="red" fill="1" id="203658181" layer="-1.00" shape="624.64,269.04 617.62,261.37 628.23,251.72 635.25,259.39 624.64,269.04" type="building"/>
   <poly color="red" fill="1" id="203658183" layer="-1.00" shape="260.31,17.55 254.32,8.71 280.89,3.69 260.31,17.55" type="building"/>
   <poly color="red" fill="1" id="203658184" layer="-1.00" shape="637.12,333.46 629.40,325.70 634.44,320.72 642.16,328.47 637.12,333.46" type="building"/>
   <poly color="red" fill="1" id="203658185" layer="-1.00" shape="88.63,215.49 86.96,211.16 97.80,207.00 99.47,211.33 88.63,215.49" type="building"/>
   <poly color="red" fill="1" id="203658187" layer="-1.00" shape="539.53,116.03 536.06,104.07 549.52,100.18 553.00,112.15 539.53,116.03" type="building"/>
   <poly color="red" fill="1" id="203658188" layer="-1.00" shape="72.07,378.55 69.88,365.17 84.66,362.77 86.84,376.15 72.07,378.55" type="building"/>
   <poly color="red" fill="1" id="203658189" layer="-1.00" shape="30.77,152.32 28.98,148.92 33.03,146.80 34.82,150.22 30.77,152.32" type="building"/>
   <poly color="red" fill="1" id="203658191" layer="-1.00" shape="8.28,130.03 6.68,120.34 21.11,117.95 22.72,127.64 8.28,130.03" type="building"/>
   <poly color="red" fill="1" id="203658193" layer="-1.00" shape="572.24,133.20 568.63,123.32 583.03,118.07 586.64,127.95 572.24,133.20" type="building"/>
   <poly color="red" fill="1" id="203658194" layer="-1.00" shape="677.49,224.77 675.21,217.78 681.64,215.70 683.93,222.68 677.49,224.77" type="building"/>
   <poly color="red" fill="1" id="203658195" layer="-1.00" shape="760.49,203.59 756.24,191.76 770.30,186.74 774.55,198.56 760.49,203.59" type="building"/>
   <poly color="red" fill="1" id="203658196" layer="-1.00" shape="251.67,49.90 247.01,38.85 260.28,33.29 264.93,44.35 251.67,49.90" type="building"/>
   <poly color="red" fill="1" id="203658197" layer="-1.00" shape="560.28,143.68 557.24,135.54 565.45,132.50 568.49,140.63 560.28,143.68" type="building"/>
   <poly color="red" fill="1" id="203658199" layer="-1.00" shape="47.43,153.26 37.13,135.79 45.39,130.95 55.69,148.43 47.43,153.26" type="building"/>
   <poly color="red" fill="1" id="203658201" layer="-1.00" shape="588.01,225.70 578.53,216.78 585.17,209.78 594.64,218.70 588.01,225.70" type="building"/>
   <poly color="red" fill="1" id="203658202" layer="-1.00" shape="509.59,143.03 504.33,137.80 510.80,131.32 516.06,136.56 509.59,143.03" type="building"/>
   <poly color="red" fill="1" id="203658205" layer="-1.00" shape="151.98,293.69 145.72,281.93 155.23,276.90 161.50,288.66 151.98,293.69" type="building"/>
   <poly color="red" fill="1" id="203658208" layer="-1.00" shape="638.26,288.20 634.69,278.00 647.50,273.56 651.06,283.74 638.26,288.20" type="building"/>
   <poly color="red" fill="1" id="203658212" layer="-1.00" shape="494.95,144.18 486.44,135.83 499.98,122.11 508.49,130.46 494.95,144.18" type="building"/>
   <poly color="red" fill="1" id="203658213" layer="-1.00" shape="693.68,116.80 691.68,110.31 698.94,108.07 700.95,114.56 693.68,116.80" type="building"/>
   <poly color="red" fill="1" id="203658214" layer="-1.00" shape="587.45,173.49 583.74,163.29 597.58,158.29 601.28,168.50 587.45,173.49" type="building"/>
   <poly color="red" fill="1" id="203658217" layer="-1.00" shape="244.39,29.18 237.76,19.20 250.80,10.59 257.42,20.58 244.39,29.18" type="building"/>
   <poly color="red" fill="1" id="203658218" layer="-1.00" shape="636.85,274.17 633.75,268.69 637.19,266.76 640.28,272.25 636.85,274.17" type="building"/>
   <poly color="red" fill="1" id="203658219" layer="-1.00" shape="56.80,161.71 52.35,154.38 58.51,150.67 62.96,158.00 56.80,161.71" type="building"/>
   <poly color="red" fill="1" id="203658220" layer="-1.00" shape="238.05,35.64 235.66,28.77 240.93,26.94 243.33,33.81 238.05,35.64" type="building"/>
   <poly color="red" fill="1" id="203658221" layer="-1.00" shape="6.81,160.43 -4.17,141.40 5.20,136.03 16.17,155.04 6.81,160.43" type="building"/>
   <poly color="red" fill="1" id="203658222" layer="-1.00" shape="72.25,188.41 83.98,180.63 89.93,189.55 78.19,197.33 72.25,188.41" type="building"/>
   <poly color="red" fill="1" id="203658223" layer="-1.00" shape="106.13,330.57 105.58,319.22 116.05,318.72 116.61,330.05 106.13,330.57" type="building"/>
   <poly color="red" fill="1" id="203658224" layer="-1.00" shape="53.46,222.30 50.49,215.05 61.18,210.71 64.15,217.96 53.46,222.30" type="building"/>
   <poly color="red" fill="1" id="203658225" layer="-1.00" shape="280.89,3.69" type="building"/>
   <poly color="red" fill="1" id="203658226" layer="-1.00" shape="755.54,214.23 752.14,203.83 758.20,201.86 761.60,212.26 755.54,214.23" type="building"/>
   <poly color="red" fill="1" id="203658227" layer="-1.00" shape="684.79,283.12 682.00,273.36 693.81,270.00 696.60,279.76 684.79,283.12" type="building"/>
   <poly color="red" fill="1" id="203658228" layer="-1.00" shape="562.26,160.31 558.46,154.36 568.45,150.58 571.47,157.34 562.26,160.31" type="building"/>
   <poly color="red" fill="1" id="203658229" layer="-1.00" shape="31.39,237.72 23.78,228.80 35.75,218.66 43.36,227.59 31.39,237.72" type="building"/>
   <poly color="red" fill="1" id="203658230" layer="-1.00" shape="660.99,317.41 658.31,310.12 664.85,307.73 667.53,315.01 660.99,317.41" type="building"/>
   <poly color="red" fill="1" id="203658231" layer="-1.00" shape="750.77,215.45 744.78,198.45 748.61,197.11 754.60,214.10 750.77,215.45" type="building"/>
   <poly color="red" fill="1" id="203658233" layer="-1.00" shape="3.65,114.39 3.05,108.85 8.52,108.26 9.13,113.80 3.65,114.39" type="building"/>
   <poly color="red" fill="1" id="203658234" layer="-1.00" shape="53.39,180.67 51.42,170.77 65.36,168.01 67.33,177.90 53.39,180.67" type="building"/>
   <poly color="red" fill="1" id="203658235" layer="-1.00" shape="661.96,163.95 657.91,151.96 668.29,148.47 672.33,160.47 661.96,163.95" type="building"/>
   <poly color="red" fill="1" id="203658239" layer="-1.00" shape="771.04,256.95 766.70,258.35 763.09,247.23 767.42,245.81 771.04,256.95" type="building"/>
   <poly color="red" fill="1" id="203658241" layer="-1.00" shape="147.23,296.85 137.91,300.46 134.31,291.22 143.63,287.62 147.23,296.85" type="building"/>
   <poly color="red" fill="1" id="203658242" layer="-1.00" shape="26.89,125.28 25.40,116.03 36.00,114.34 37.48,123.58 26.89,125.28" type="building"/>
   <poly color="red" fill="1" id="203658244" layer="-1.00" shape="577.03,182.09 573.00,171.03 582.18,167.70 586.21,178.75 577.03,182.09" type="building"/>
   <poly color="red" fill="1" id="203658245" layer="-1.00" shape="406.41,88.46 400.54,81.77 405.12,77.78 410.98,84.47 406.41,88.46" type="building"/>
   <poly color="red" fill="1" id="203658248" layer="-1.00" shape="754.67,261.83 751.24,251.69 761.93,248.09 765.36,258.24 754.67,261.83" type="building"/>
   <poly color="red" fill="1" id="203658250" layer="-1.00" shape="652.19,250.91 648.49,240.49 658.86,236.83 662.56,247.26 652.19,250.91" type="building"/>
   <poly color="red" fill="0" id="203658251" layer="-1.00" shape="-4.93,155.77 -1.50,161.47" type="building"/>
   <poly color="red" fill="1" id="203658253" layer="-1.00" shape="407.41,100.39 404.18,90.62 412.93,87.75 416.15,97.52 407.41,100.39" type="building"/>
   <poly color="red" fill="1" id="203658256" layer="-1.00" shape="581.49,210.10 577.35,206.54 582.89,200.14 587.03,203.70 581.49,210.10" type="building"/>
   <poly color="red" fill="1" id="203658258" layer="-1.00" shape="89.90,313.75 87.29,300.75 98.20,298.57 100.83,311.56 89.90,313.75" type="building"/>
   <poly color="red" fill="1" id="203658259" layer="-1.00" shape="221.61,77.77 220.64,65.15 235.45,64.01 236.42,76.65 221.61,77.77" type="building"/>
   <poly color="red" fill="1" id="203658260" layer="-1.00" shape="317.08,31.97 309.83,25.36 319.14,15.23 326.38,21.84 317.08,31.97" type="building"/>
   <poly color="red" fill="1" id="203658262" layer="-1.00" shape="270.92,71.71 267.04,60.28 278.59,56.38 282.47,67.80 270.92,71.71" type="building"/>
   <poly color="red" fill="1" id="203658263" layer="-1.00" shape="544.36,166.67 537.11,158.63 542.25,154.02 549.50,162.08 544.36,166.67" type="building"/>
   <poly color="red" fill="1" id="203658264" layer="-1.00" shape="57.45,205.95 53.77,195.68 65.60,191.48 69.27,201.75 57.45,205.95" type="building"/>
   <poly color="red" fill="1" id="203658265" layer="-1.00" shape="738.30,203.99 736.97,199.41 740.99,198.25 742.32,202.83 738.30,203.99" type="building"/>
   <poly color="red" fill="1" id="203658266" layer="-1.00" shape="79.36,230.23 76.64,223.49 85.24,220.05 87.96,226.78 79.36,230.23" type="building"/>
   <poly color="red" fill="1" id="203658267" layer="-1.00" shape="743.07,254.29 741.16,248.35 747.15,246.43 749.05,252.38 743.07,254.29" type="building"/>
   <poly color="red" fill="1" id="203658270" layer="-1.00" shape="713.27,63.63 711.38,58.02 718.42,55.67 720.31,61.26 713.27,63.63" type="building"/>
   <poly color="red" fill="1" id="203658274" layer="-1.00" shape="764.90,277.35 762.89,270.61 769.03,268.79 771.04,275.51 764.90,277.35" type="building"/>
   <poly color="red" fill="1" id="203658275" layer="-1.00" shape="788.48,250.15 786.18,243.18 791.95,241.28 794.26,248.26 788.48,250.15" type="building"/>
   <poly color="red" fill="1" id="203658277" layer="-1.00" shape="667.98,181.81 665.23,173.55 676.16,169.93 678.92,178.18 667.98,181.81" type="building"/>
   <poly color="red" fill="1" id="203658278" layer="-1.00" shape="635.88,239.33 632.84,230.29 645.74,225.99 648.77,235.03 635.88,239.33" type="building"/>
   <poly color="red" fill="1" id="203658279" layer="-1.00" shape="-8.45,154.61" type="building"/>
   <poly color="red" fill="1" id="203658281" layer="-1.00" shape="123.81,307.64 119.90,297.57 129.57,293.84 133.48,303.90 123.81,307.64" type="building"/>
   <poly color="red" fill="1" id="203658284" layer="-1.00" shape="416.15,113.90 412.86,104.82 425.05,100.43 428.34,109.51 416.15,113.90" type="building"/>
   <poly color="red" fill="1" id="203658286" layer="-1.00" shape="589.48,97.45 584.98,82.97 593.72,80.27 598.22,94.75 589.48,97.45" type="building"/>
   <poly color="red" fill="1" id="203658287" layer="-1.00" shape="682.60,282.60 677.01,284.55 672.97,273.04 678.56,271.09 682.60,282.60" type="building"/>
   <poly color="red" fill="1" id="203658288" layer="-1.00" shape="291.45,1.49" type="building"/>
   <poly color="red" fill="1" id="203658291" layer="-1.00" shape="639.41,264.53 636.16,259.96 641.65,254.85 645.30,260.88 639.41,264.53" type="building"/>
   <poly color="red" fill="1" id="203658293" layer="-1.00" shape="92.20,296.38 90.31,291.01 95.54,289.19 97.43,294.54 92.20,296.38" type="building"/>
   <poly color="red" fill="1" id="203658294" layer="-1.00" shape="550.99,173.44 557.32,167.69 553.36,163.34 547.03,169.08 550.99,173.44" type="building"/>
   <poly color="red" fill="1" id="203658296" layer="-1.00" shape="247.80,74.08 246.61,62.53 260.36,61.12 261.55,72.66 247.80,74.08" type="building"/>
   <poly color="red" fill="1" id="203658297" layer="-1.00" shape="531.34,173.67 522.56,166.32 529.63,157.91 538.42,165.26 531.34,173.67" type="building"/>
   <poly color="red" fill="1" id="203658299" layer="-1.00" shape="269.41,47.33 265.24,40.70 270.91,37.16 275.08,43.79 269.41,47.33" type="building"/>
   <poly color="red" fill="1" id="203658300" layer="-1.00" shape="695.85,314.65 691.66,299.94 701.98,297.04 706.57,311.62 695.85,314.65" type="building"/>
   <poly color="red" fill="1" id="203658301" layer="-1.00" shape="211.50,69.31 216.60,69.28 216.65,75.82 211.54,75.85 211.50,69.31" type="building"/>
   <poly color="red" fill="1" id="203658302" layer="-1.00" shape="608.36,221.35 604.85,211.85 616.38,207.62 619.89,217.12 608.36,221.35" type="building"/>
   <poly color="red" fill="1" id="203658303" layer="-1.00" shape="530.29,154.05 527.29,151.14 532.26,146.04 535.26,148.96 530.29,154.05" type="building"/>
   <poly color="red" fill="1" id="203658304" layer="-1.00" shape="620.50,188.97 616.89,179.52 624.55,176.62 628.16,186.06 620.50,188.97" type="building"/>
   <poly color="red" fill="1" id="203658305" layer="-1.00" shape="594.51,228.83 592.35,222.99 605.63,218.11 607.79,223.94 594.51,228.83" type="building"/>
   <poly color="red" fill="1" id="203658307" layer="-1.00" shape="516.96,159.77 508.22,151.88 514.66,144.79 523.39,152.68 516.96,159.77" type="building"/>
   <poly color="red" fill="1" id="203658308" layer="-1.00" shape="711.86,86.75 708.65,78.83 714.34,76.55 717.54,84.47 711.86,86.75" type="building"/>
   <poly color="red" fill="1" id="203658310" layer="-1.00" shape="656.14,285.54 651.23,271.74 668.02,265.81 672.93,279.61 656.14,285.54" type="building"/>
   <poly color="red" fill="1" id="203658312" layer="-1.00" shape="686.06,244.20 684.53,240.32 690.84,237.82 692.38,241.71 686.06,244.20" type="building"/>
   <poly color="red" fill="1" id="203658314" layer="-1.00" shape="725.49,241.26 723.89,236.94 726.29,236.07 732.70,233.71 734.30,238.02 725.49,241.26" type="building"/>
   <poly color="red" fill="1" id="203658315" layer="-1.00" shape="626.00,249.73 622.14,243.47 627.37,238.43 629.15,237.00 632.75,245.30 626.00,249.73" type="building"/>
   <poly color="red" fill="1" id="203658316" layer="-1.00" shape="792.01,287.24 789.63,280.99 788.13,276.57 801.27,271.74 805.21,282.39 792.01,287.24" type="building"/>
   <poly color="red" fill="1" id="203658317" layer="-1.00" shape="607.98,252.37 601.25,244.92 609.66,237.37 611.38,239.28 616.39,244.82 607.98,252.37" type="building"/>
   <poly color="red" fill="1" id="203658318" layer="-1.00" shape="316.82,11.42 313.97,8.80 311.03,6.10 323.50,4.19 316.82,11.42" type="building"/>
   <poly color="red" fill="1" id="203658319" layer="-1.00" shape="724.44,285.92 721.77,286.83 720.10,282.03 730.79,278.36 732.45,283.16 724.44,285.92" type="building"/>
   <poly color="red" fill="1" id="203658320" layer="-1.00" shape="172.07,71.90 179.54,72.35 179.66,68.50 180.10,65.34 172.48,64.90 172.07,71.90" type="building"/>
   <poly color="red" fill="1" id="203658322" layer="-1.00" shape="300.61,42.67 298.57,39.79 296.42,36.73 301.82,32.95 306.01,38.88 300.61,42.67" type="building"/>
   <poly color="red" fill="1" id="203658324" layer="-1.00" shape="789.63,280.99 784.24,282.80 782.02,276.24 787.40,274.43 788.13,276.57 789.63,280.99" type="building"/>
   <poly color="red" fill="1" id="203658325" layer="-1.00" shape="642.13,271.92 639.41,264.53 645.30,260.88 646.55,260.10 649.85,268.81 642.13,271.92" type="building"/>
   <poly color="red" fill="1" id="203658328" layer="-1.00" shape="548.98,187.01 539.29,176.59 547.03,169.08 550.99,173.44 556.88,179.71 548.98,187.01" type="building"/>
   <poly color="red" fill="1" id="203658329" layer="-1.00" shape="719.02,238.81 717.06,233.42 724.35,230.76 726.29,236.07 723.89,236.94 719.02,238.81" type="building"/>
   <poly color="red" fill="1" id="203658330" layer="-1.00" shape="49.67,77.11 47.21,70.01 51.76,68.45 53.93,74.60 54.32,75.52 49.67,77.11" type="building"/>
   <poly color="red" fill="1" id="203658332" layer="-1.00" shape="303.97,19.74 294.98,11.59 304.96,0.66 311.03,6.10 313.97,8.80 303.97,19.74" type="building"/>
   <poly color="red" fill="1" id="203658334" layer="-1.00" shape="772.88,255.59 769.44,245.62 775.06,243.69 776.20,246.97 778.51,253.65 772.88,255.59" type="building"/>
   <poly color="red" fill="1" id="203658335" layer="-1.00" shape="285.68,48.21 279.36,38.59 292.14,30.24 296.42,36.73 298.57,39.79 285.68,48.21" type="building"/>
   <poly color="red" fill="1" id="203658336" layer="-1.00" shape="65.60,191.48 72.25,188.41 78.19,197.33 78.63,199.10 69.27,201.75 65.60,191.48" type="building"/>
   <poly color="red" fill="1" id="203658339" layer="-1.00" shape="154.84,75.66 155.16,64.97 166.75,65.32 166.51,71.55 166.40,76.00 154.84,75.66" type="building"/>
   <poly color="red" fill="1" id="203658340" layer="-1.00" shape="137.23,288.32 132.64,275.84 146.25,270.86 147.69,274.76 141.83,276.91 144.99,285.49 137.23,288.32" type="building"/>
   <poly color="red" fill="1" id="203658341" layer="-1.00" shape="674.44,324.58 672.42,318.73 674.07,318.16 668.62,302.44 677.75,299.30 685.23,320.88 674.44,324.58" type="building"/>
   <poly color="red" fill="1" id="203658342" layer="-1.00" shape="722.52,256.95 718.36,244.86 728.04,241.55 729.02,244.41 737.66,241.47 740.83,250.69 722.52,256.95" type="building"/>
   <poly color="red" fill="1" id="203658343" layer="-1.00" shape="166.75,65.32 166.81,63.76 172.46,63.99 172.48,64.90 172.07,71.90 166.51,71.55 166.75,65.32" type="building"/>
   <poly color="red" fill="1" id="203658345" layer="-1.00" shape="576.45,155.61 573.81,148.39 578.22,146.79 576.99,143.44 590.09,138.67 593.96,149.23 576.45,155.61" type="building"/>
   <poly color="red" fill="1" id="203658347" layer="-1.00" shape="93.52,353.89 92.11,345.57 97.79,344.61 98.10,346.42 113.58,343.82 114.68,350.32 93.52,353.89" type="building"/>
   <poly color="red" fill="1" id="203658348" layer="-1.00" shape="707.64,315.02 706.57,311.62 701.98,297.04 700.85,293.42 707.27,291.41 714.07,313.00 707.64,315.02" type="building"/>
   <poly color="red" fill="1" id="203658349" layer="-1.00" shape="561.97,183.68 556.62,177.80 560.40,174.39 562.56,176.75 569.77,170.23 572.96,173.74 561.97,183.68" type="building"/>
   <poly color="red" fill="1" id="203658352" layer="-1.00" shape="663.10,262.38 661.37,257.67 659.22,258.45 657.95,254.99 665.03,252.42 668.01,260.59 663.10,262.38" type="building"/>
   <poly color="red" fill="1" id="203658353" layer="-1.00" shape="98.48,379.18 97.84,373.50 95.09,373.81 94.09,364.87 110.39,363.04 112.03,377.67 98.48,379.18" type="building"/>
   <poly color="red" fill="0" id="203658354" layer="-1.00" shape="5.15,63.62 8.72,85.80 -6.57,88.27 -6.13,90.94" type="building"/>
   <poly color="red" fill="1" id="203658355" layer="-1.00" shape="-5.52,133.54 -5.85,130.78 -0.64,130.18 -0.91,127.86 5.74,127.08 6.34,132.15 -5.52,133.54" type="building"/>
   <poly color="red" fill="1" id="203658359" layer="-1.00" shape="611.38,239.28 620.17,230.96 627.37,238.43 622.14,243.47 618.42,247.05 616.39,244.82 611.38,239.28" type="building"/>
   <poly color="red" fill="1" id="203658360" layer="-1.00" shape="198.57,77.86 198.40,67.03 211.42,66.81 211.50,69.31 211.54,75.85 211.60,77.65 198.57,77.86" type="building"/>
   <poly color="red" fill="1" id="203658361" layer="-1.00" shape="625.06,324.37 609.37,307.60 611.33,305.76 606.45,300.53 611.80,295.57 632.38,317.57 625.06,324.37" type="building"/>
   <poly color="red" fill="1" id="203658363" layer="-1.00" shape="114.56,310.68 113.06,305.18 114.31,304.84 113.27,301.05 118.14,299.73 120.69,309.01 114.56,310.68" type="building"/>
   <poly color="red" fill="1" id="203658365" layer="-1.00" shape="103.66,307.62 99.65,292.31 110.28,289.54 113.27,301.05 114.31,304.84 113.06,305.18 103.66,307.62" type="building"/>
   <poly color="red" fill="1" id="203658366" layer="-1.00" shape="51.76,68.45 48.80,60.03 70.40,52.45 76.15,68.76 70.33,70.81 69.71,69.07 53.93,74.60 51.76,68.45" type="building"/>
   <poly color="red" fill="1" id="203658367" layer="-1.00" shape="90.91,226.11 88.67,219.50 101.35,214.40 99.47,211.33 97.80,207.00 104.28,204.16 112.42,218.29 90.91,226.11" type="building"/>
   <poly color="red" fill="1" id="203658368" layer="-1.00" shape="84.89,211.30 82.86,206.24 92.83,202.08 90.30,196.92 98.51,193.39 104.24,203.53 97.35,206.42 84.89,211.30" type="building"/>
   <poly color="red" fill="1" id="203658370" layer="-1.00" shape="179.54,72.35 179.37,78.15 193.36,78.58 193.72,67.04 184.13,66.75 184.08,68.63 179.66,68.50 179.54,72.35" type="building"/>
   <poly color="red" fill="1" id="203658371" layer="-1.00" shape="92.05,343.99 90.57,336.79 92.11,336.48 89.97,326.08 96.47,324.75 98.37,333.97 109.33,331.73 111.05,340.11 92.05,343.99" type="building"/>
   <poly color="red" fill="0" id="203658372" layer="-1.00" shape="-6.22,117.06 -6.63,113.87 -0.55,113.10 -0.14,116.29 1.76,116.05 3.11,126.46" type="building"/>
   <poly color="red" fill="1" id="203658373" layer="-1.00" shape="78.05,67.86 73.41,55.53 86.64,50.57 89.54,58.27 94.15,56.54 97.00,64.11 89.44,66.93 88.33,64.01 78.05,67.86" type="building"/>
   <poly color="red" fill="1" id="203658374" layer="-1.00" shape="594.96,188.91 592.12,180.91 595.20,179.84 593.90,176.18 600.65,173.80 601.98,177.54 604.58,176.62 607.38,184.52 594.96,188.91" type="building"/>
   <poly color="red" fill="1" id="203658375" layer="-1.00" shape="597.79,197.52 594.96,188.91 607.38,184.52 610.42,192.83 607.41,193.87 608.27,196.37 602.83,198.23 602.08,196.04 597.79,197.52" type="building"/>
   <poly color="red" fill="1" id="203658378" layer="-1.00" shape="8.46,189.75 7.34,177.63 22.29,176.25 23.18,185.99 25.10,185.82 25.89,194.33 19.24,194.94 18.67,188.82 8.46,189.75" type="building"/>
   <poly color="red" fill="1" id="203658380" layer="-1.00" shape="769.44,245.62 764.63,231.43 779.47,225.97 782.33,233.73 788.23,231.55 791.95,241.28 786.18,243.18 776.20,246.97 775.06,243.69 769.44,245.62" type="building"/>
   <poly color="red" fill="0" id="203658382" layer="-1.00" shape="0.65,31.53 8.77,30.24 17.84,86.65 9.08,88.05 8.72,85.80 5.15,63.62" type="building"/>
   <poly color="red" fill="1" id="203658383" layer="-1.00" shape="704.66,262.60 704.10,261.00 694.88,264.16 694.00,261.59 685.81,264.41 683.55,257.86 708.92,249.15 712.63,259.87 710.45,260.61 704.66,262.60" type="building"/>
   <poly color="red" fill="1" id="203658384" layer="-1.00" shape="711.57,223.46 707.26,211.36 716.35,208.14 717.06,210.13 720.13,209.05 720.46,209.99 722.79,216.53 721.00,217.16 721.93,219.78 711.57,223.46" type="building"/>
   <poly color="red" fill="1" id="203658385" layer="-1.00" shape="708.07,277.35 706.89,273.93 705.48,274.41 701.75,263.60 704.66,262.60 710.45,260.61 713.70,270.04 715.79,269.32 717.44,274.14 708.07,277.35" type="building"/>
   <poly color="194,194,130" fill="1" id="203658389" layer="-3.00" shape="544.00,362.59 523.11,302.39 518.89,303.68 503.88,265.38 517.76,259.37 508.86,233.63 517.69,230.16 532.08,252.93 571.69,360.08 544.00,362.59" type="landuse"/>
   <poly color="194,194,130" fill="1" id="203658390" layer="-3.00" shape="517.69,230.16 479.59,188.38 466.32,153.58 461.09,139.87 453.24,131.44 444.04,122.93 447.69,121.67 435.25,108.04 411.21,118.37 413.05,123.40 416.65,133.28 440.42,124.12 469.03,204.93 454.95,212.04 490.87,312.27 518.89,303.68 503.88,265.38 517.76,259.37 508.86,233.63 517.69,230.16" type="landuse"/>
   <poly color="235,235,227" fill="1" id="203658399" layer="-3.00" shape="816.85,307.30 814.38,301.96 794.26,248.26 791.95,241.28 788.23,231.55 774.55,198.56 770.30,186.74 762.33,164.74 758.35,155.02 719.86,45.93 648.87,62.13 574.44,82.50 533.48,92.88 512.82,98.70 456.44,117.94 478.54,141.29 501.72,165.13 526.51,185.37 583.16,240.52 630.74,293.80 639.33,297.77 642.43,304.95 676.52,342.71 678.72,344.98 718.97,334.92 752.70,326.92 757.05,330.35 773.63,326.24 777.92,325.32 819.11,314.88 816.85,307.30" type="residential"/>
   <poly color="237,199,199" fill="1" id="203658406" layer="-1.00" shape="142.63,361.53 143.41,348.68 162.84,349.85 163.06,346.21 170.35,346.64 169.99,352.47 173.60,352.70 175.13,354.49 174.89,359.91 173.05,361.72 170.01,361.55 169.72,366.25 163.74,365.89 163.93,362.81 142.63,361.53" type="amenity"/>
   <poly color="red" fill="1" id="204332729" layer="-1.00" shape="99.55,109.82 97.99,104.10 102.74,102.82 100.18,93.45 110.68,90.60 112.21,96.21 110.20,96.76 113.47,108.73 102.49,111.72 101.81,109.20 99.55,109.82" type="building"/>
   <poly color="red" fill="1" id="204332730" layer="-1.00" shape="120.36,143.45 119.01,139.88 114.76,141.47 111.87,133.82 116.25,132.17 115.37,129.84 126.56,125.65 129.64,133.81 126.16,135.12 128.19,140.52 120.36,143.45" type="building"/>
   <poly color="red" fill="1" id="204332731" layer="-1.00" shape="343.45,124.95 339.69,112.91 351.03,109.40 354.55,120.65 357.22,119.83 361.37,133.12 355.31,134.99 357.00,140.43 360.26,150.90 353.12,153.12 347.88,136.33 347.08,136.57 343.45,124.95" type="building"/>
   <poly color="red" fill="1" id="204332732" layer="-1.00" shape="116.87,164.80 112.48,154.20 121.91,150.32 126.29,160.92 116.87,164.80" type="building"/>
   <poly color="red" fill="1" id="204332733" layer="-1.00" shape="172.49,151.90 171.73,143.98 179.99,143.18 180.76,151.11 172.49,151.90" type="building"/>
   <poly color="red" fill="1" id="204332734" layer="-1.00" shape="272.93,100.21 269.10,88.11 278.15,85.27 281.97,97.36 272.93,100.21" type="building"/>
   <poly color="red" fill="1" id="204332735" layer="-1.00" shape="374.62,148.83 370.94,138.80 378.98,135.87 382.66,145.90 374.62,148.83" type="building"/>
   <poly color="red" fill="1" id="204332736" layer="-1.00" shape="210.32,156.55 209.57,145.88 215.79,145.45 216.53,156.12 210.32,156.55" type="building"/>
   <poly color="red" fill="1" id="204332737" layer="-1.00" shape="122.15,101.02 120.54,94.68 132.89,91.57 134.50,97.91 122.15,101.02" type="building"/>
   <poly color="red" fill="1" id="204332738" layer="-1.00" shape="131.81,159.26 126.69,145.63 135.17,142.47 140.29,156.08 131.81,159.26" type="building"/>
   <poly color="red" fill="1" id="204332739" layer="-1.00" shape="363.51,151.92 360.42,141.89 366.62,140.00 369.69,150.03 363.51,151.92" type="building"/>
   <poly color="red" fill="1" id="204332740" layer="-1.00" shape="262.36,160.65 261.94,149.68 277.02,149.10 277.45,160.07 262.36,160.65" type="building"/>
   <poly color="red" fill="1" id="204332741" layer="-1.00" shape="126.60,85.73 134.97,83.82 133.66,78.06 125.28,79.96 126.60,85.73" type="building"/>
   <poly color="red" fill="1" id="204332742" layer="-1.00" shape="310.32,145.22 307.64,135.37 314.30,133.57 316.98,143.42 310.32,145.22" type="building"/>
   <poly color="red" fill="1" id="204332743" layer="-1.00" shape="201.30,115.72 201.16,111.89 205.61,111.74 205.74,115.56 201.30,115.72" type="building"/>
   <poly color="red" fill="1" id="204332744" layer="-1.00" shape="140.35,125.53 138.81,119.71 147.53,117.43 149.06,123.26 140.35,125.53" type="building"/>
   <poly color="red" fill="1" id="204332745" layer="-1.00" shape="288.57,161.81 285.09,150.36 292.40,148.15 295.87,159.60 288.57,161.81" type="building"/>