<?xml version="1.0" encoding="utf-8"?><!-- generated on 10/11/17 17:52:33 by SUMO polyconvert Version 0.25.0
<?xml version="1.0" encoding="UTF-8"?>

<configuration xmlns:xsi="http://www.w3.org/2001/XMLSchema-instance" xsi:noNamespaceSchemaLocation="http://sumo.dlr.de/xsd/polyconvertConfiguration.xsd">

    <input>
        <net-file value="EM_Wyhl_rural_800.net.xml"/>
        <osm-files value="EM_Wyhl_rural_800.osm"/>
        <type-file value="osmPolyconvert.typ.xml"/>
    </input>

    <output>
        <output-file value="EM_Wyhl_rural_800.poly.xml"/>
    </output>

    <projection>
        <proj.utm value="true"/>
    </projection>

    <processing>
        <poi-layer-offset value="5"/>
    </processing>

</configuration>
-->
<additional>
   <location convBoundary="-2.23,-12.39,877.57,854.75" netOffset="-399161.30,-5334971.02" origBoundary="7.643901,48.160002,7.655600,48.167700" projParameter="+proj=utm +zone=32 +ellps=WGS84 +datum=WGS84 +units=m +no_defs"/>
   <poly color="207,245,201" fill="0" id="164767392" layer="-2.00" shape="13.91,405.69 43.46,384.73 49.86,376.19 52.61,367.73 52.52,356.75 49.26,348.11 45.07,339.86 39.64,332.83 30.88,325.63 20.52,321.29 9.38,319.39" type="leisure"/>
   <poly color="79,230,125" fill="0" id="164767392#1" layer="-2.00" shape="13.91,405.69 43.46,384.73 49.86,376.19 52.61,367.73 52.52,356.75 49.26,348.11 45.07,339.86 39.64,332.83 30.88,325.63 20.52,321.29 9.38,319.39" type="sport"/>
   <poly color="237,199,199" fill="0" id="164767393" layer="-1.00" shape="4.06,457.71 4.89,459.91 29.55,450.73 33.51,461.30 26.65,463.85 23.69,464.95 17.92,467.11 13.73,468.67" type="amenity"/>
   <poly color="red" fill="0" id="164767393#1" layer="-1.00" shape="4.06,457.71 4.89,459.91 29.55,450.73 33.51,461.30 26.65,463.85 23.69,464.95 17.92,467.11 13.73,468.67" type="building"/>
   <poly color="237,199,199" fill="1" id="164767394" layer="-1.00" shape="26.36,473.05 20.91,475.08 23.15,481.07 18.96,482.63 13.73,468.67 17.92,467.11 19.53,471.39 25.30,469.25 23.69,464.95 26.65,463.85 31.90,477.81 28.61,479.04 26.36,473.05" type="amenity"/>
   <poly color="red" fill="1" id="164767394#1" layer="-1.00" shape="26.36,473.05 20.91,475.08 23.15,481.07 18.96,482.63 13.73,468.67 17.92,467.11 19.53,471.39 25.30,469.25 23.69,464.95 26.65,463.85 31.90,477.81 28.61,479.04 26.36,473.05" type="building"/>
   <poly color="237,199,199" fill="1" id="164767395" layer="-1.00" shape="14.91,498.49 10.19,485.90 18.96,482.63 23.15,481.07 28.61,479.04 31.90,477.81 64.11,465.81 68.98,478.37 59.42,481.74 61.42,487.08 56.06,489.07 54.75,485.57 53.54,486.02 29.19,495.08 30.53,498.65 25.29,500.60 23.32,495.36 14.91,498.49" type="amenity"/>
   <poly color="red" fill="1" id="164767395#1" layer="-1.00" shape="14.91,498.49 10.19,485.90 18.96,482.63 23.15,481.07 28.61,479.04 31.90,477.81 64.11,465.81 68.98,478.37 59.42,481.74 61.42,487.08 56.06,489.07 54.75,485.57 53.54,486.02 29.19,495.08 30.53,498.65 25.29,500.60 23.32,495.36 14.91,498.49" type="building"/>
   <poly color="red" fill="0" id="164767396" layer="-1.00" shape="13.91,405.69 16.65,409.70" type="building"/>
   <poly color="237,199,199" fill="1" id="164767402" layer="-1.00" shape="64.11,465.81 51.92,434.38 63.15,430.04 80.22,474.04 68.98,478.37 64.11,465.81" type="amenity"/>
   <poly color="red" fill="1" id="164767402#1" layer="-1.00" shape="64.11,465.81 51.92,434.38 63.15,430.04 80.22,474.04 68.98,478.37 64.11,465.81" type="building"/>
   <poly color="red" fill="1" id="164844924" layer="-1.00" shape="637.71,108.36 627.91,100.01 635.10,91.63 644.90,99.99 637.71,108.36" type="building"/>
   <poly color="red" fill="1" id="164844954" layer="-1.00" shape="600.63,106.06 595.85,101.86 601.29,95.72 606.07,99.91 600.63,106.06" type="building"/>
   <poly color="red" fill="1" id="164844993" layer="-1.00" shape="723.76,-10.54" type="building"/>
   <poly color="red" fill="1" id="164844994" layer="-1.00" shape="630.06,76.73 631.86,71.08 639.27,73.19 635.15,78.81 630.06,76.73" type="building"/>
   <poly color="red" fill="1" id="164844995" layer="-1.00" shape="420.26,122.64 417.85,119.80 422.03,116.27 424.44,119.11 420.26,122.64" type="building"/>
   <poly color="red" fill="1" id="164845006" layer="-1.00" shape="641.11,85.79 645.94,77.77 654.85,83.09 650.01,91.12 641.11,85.79" type="building"/>
   <poly color="red" fill="1" id="164845099" layer="-1.00" shape="469.18,13.77 473.35,-5.51 486.67,-6.47 486.65,-2.22 488.48,-1.18 488.74,3.34 486.48,3.74 486.68,5.18 491.40,5.01 491.65,9.34 493.03,10.41 493.21,15.37 491.85,15.31 492.10,19.46 494.03,20.70 494.56,25.02 491.75,25.25 492.18,33.92 479.35,26.19 476.67,28.14 473.30,27.56 470.54,25.18 470.77,22.99 471.82,21.97 471.12,13.86 469.18,13.77" type="building"/>
   <poly color="red" fill="1" id="164863056" layer="-1.00" shape="767.85,382.08 759.28,373.32 764.17,368.57 772.74,377.32 767.85,382.08" type="building"/>
   <poly color="red" fill="1" id="164863057" layer="-1.00" shape="762.79,394.42 750.39,382.11 755.18,377.31 763.21,385.28 764.13,384.36 768.51,388.70 762.79,394.42" type="building"/>
   <poly color="red" fill="1" id="164863060" layer="-1.00" shape="751.24,397.99 748.53,395.24 746.65,397.08 740.97,391.33 747.52,384.90 755.92,393.39 751.24,397.99" type="building"/>
   <poly color="red" fill="1" id="164863074" layer="-1.00" shape="725.31,389.00 717.89,381.57 721.30,378.20 722.99,376.58 730.37,383.99 725.31,389.00" type="building"/>
   <poly color="red" fill="1" id="164863079" layer="-1.00" shape="728.28,418.05 720.08,409.66 725.06,404.82 733.30,413.17 728.28,418.05" type="building"/>
   <poly color="red" fill="1" id="165197271" layer="-1.00" shape="77.29,299.08 71.57,290.74 81.55,283.94 87.27,292.27 77.29,299.08" type="building"/>
   <poly color="red" fill="1" id="165197272" layer="-1.00" shape="119.74,362.71 113.49,353.59 123.88,346.50 130.13,355.63 119.74,362.71" type="building"/>
   <poly color="red" fill="1" id="165197273" layer="-1.00" shape="90.16,374.55 80.58,360.55 86.91,356.31 90.26,353.91 99.87,367.94 90.16,374.55" type="building"/>
   <poly color="red" fill="1" id="165197281" layer="-1.00" shape="39.45,301.14 33.97,293.55 44.84,285.76 50.32,293.34 39.45,301.14" type="building"/>
   <poly color="red" fill="1" id="165199147" layer="-1.00" shape="379.37,282.59 375.84,274.36 386.72,269.73 390.25,277.96 379.37,282.59" type="building"/>
   <poly color="red" fill="1" id="165248560" layer="-1.00" shape="422.59,394.01 422.45,388.19 430.46,388.00 430.59,393.83 422.59,394.01" type="building"/>
   <poly color="red" fill="1" id="165248596" layer="-1.00" shape="495.80,352.64 497.68,340.12 509.25,341.97 507.78,354.27 495.80,352.64" type="building"/>
   <poly color="red" fill="1" id="165339382" layer="-1.00" shape="422.10,598.35 414.47,588.82 417.71,586.23 420.31,584.16 427.95,593.69 422.10,598.35" type="building"/>
   <poly color="red" fill="1" id="165339396" layer="-1.00" shape="494.02,512.53 491.53,509.89 490.18,510.60 487.85,507.94 488.35,506.51 486.35,504.37 498.80,492.73 502.24,496.38 500.31,498.18 504.55,502.68 494.02,512.53" type="building"/>
   <poly color="red" fill="1" id="165339399" layer="-1.00" shape="387.18,537.77 383.73,533.43 391.61,525.96 392.60,526.92 396.60,523.29 400.28,526.83 387.18,537.77" type="building"/>
   <poly color="red" fill="1" id="165339400" layer="-1.00" shape="410.33,607.61 404.36,599.78 405.85,598.64 404.79,597.25 408.62,594.35 409.70,595.76 410.63,595.06 416.59,602.86 410.33,607.61" type="building"/>
   <poly color="red" fill="1" id="165339401" layer="-1.00" shape="455.55,570.93 450.46,563.00 457.08,558.78 462.16,566.73 455.55,570.93" type="building"/>
   <poly color="red" fill="1" id="165339405" layer="-1.00" shape="382.22,507.54 385.38,504.86 386.57,506.24 391.81,501.80 392.94,503.13 393.99,502.26 395.31,503.80 394.36,504.61 396.80,507.47 390.52,512.69 388.34,514.71 382.22,507.54" type="building"/>
   <poly color="red" fill="1" id="165339407" layer="-1.00" shape="438.15,585.98 431.32,575.99 433.41,574.63 437.43,571.84 444.26,581.83 438.15,585.98" type="building"/>
   <poly color="red" fill="1" id="165339413" layer="-1.00" shape="389.39,525.33 383.59,519.11 388.34,514.71 390.52,512.69 393.86,516.27 395.06,515.15 396.14,516.32 394.96,517.42 396.34,518.90 389.39,525.33" type="building"/>
   <poly color="red" fill="1" id="165339414" layer="-1.00" shape="474.84,564.13 468.74,555.49 472.20,553.04 475.44,550.90 481.41,559.68 474.84,564.13" type="building"/>
   <poly color="red" fill="1" id="165339416" layer="-1.00" shape="449.21,579.42 442.97,570.43 445.44,568.86 448.14,566.82 454.39,575.85 449.21,579.42" type="building"/>
   <poly color="red" fill="1" id="165339417" layer="-1.00" shape="483.34,550.98 479.04,544.99 482.80,542.19 487.83,538.59 492.03,535.48 500.38,547.02 493.87,551.66 489.96,546.21 485.83,549.09 483.34,550.98" type="building"/>
   <poly color="red" fill="1" id="165339862" layer="-1.00" shape="567.99,527.20 563.97,520.82 563.21,519.62 565.78,518.01 567.23,520.31 569.59,518.83 570.40,518.33 570.83,519.01 573.69,517.22 576.59,521.81 567.99,527.20" type="building"/>
   <poly color="red" fill="1" id="165339863" layer="-1.00" shape="580.34,518.28 575.62,512.91 583.87,505.71 588.59,511.09 580.34,518.28" type="building"/>
   <poly color="red" fill="1" id="165339868" layer="-1.00" shape="592.72,508.70 585.46,499.68 591.30,495.01 592.52,494.03 599.78,503.04 592.72,508.70" type="building"/>
   <poly color="red" fill="1" id="165339877" layer="-1.00" shape="556.70,532.31 549.18,519.91 560.45,514.40 563.21,519.62 563.97,520.82 559.50,523.55 562.71,528.71 556.70,532.31" type="building"/>
   <poly color="red" fill="1" id="165339878" layer="-1.00" shape="609.40,493.81 604.68,498.02 597.62,490.13 593.56,485.64 603.69,476.39 608.84,482.33 603.45,487.15 606.10,490.11 609.40,493.81" type="building"/>
   <poly color="red" fill="1" id="165345927" layer="-1.00" shape="396.77,641.75 391.16,633.78 402.13,626.10 407.74,634.09 401.77,638.15 399.22,640.13 396.77,641.75" type="building"/>
   <poly color="red" fill="1" id="165345964" layer="-1.00" shape="787.33,831.10 780.90,824.70 787.51,817.24 794.51,823.53 787.33,831.10" type="building"/>
   <poly color="red" fill="1" id="165346047" layer="-1.00" shape="413.31,634.01 405.49,623.84 413.58,618.33 421.74,629.79 419.26,631.03 421.77,634.41 416.54,637.65 413.40,639.28 412.44,637.81 411.02,635.90 413.31,634.01" type="building"/>
   <poly color="red" fill="1" id="165438610" layer="-1.00" shape="425.50,622.40 418.94,616.23 424.42,610.44 430.99,616.61 428.49,619.25 425.50,622.40" type="building"/>
   <poly color="red" fill="1" id="165438614" layer="-1.00" shape="452.14,628.76 445.29,622.65 449.89,617.75 454.25,613.12 455.90,614.84 460.98,619.95 452.14,628.76" type="building"/>
   <poly color="red" fill="1" id="165544648" layer="-1.00" shape="318.51,712.36 313.08,701.69 319.74,698.32 325.18,708.97 318.51,712.36" type="building"/>
   <poly color="red" fill="1" id="165544683" layer="-1.00" shape="446.32,775.24 441.76,764.77 440.63,762.20 449.26,758.47 454.94,771.51 446.32,775.24" type="building"/>
   <poly color="red" fill="1" id="165544685" layer="-1.00" shape="345.23,851.46 341.17,837.40 340.64,835.56 342.91,834.89 347.57,833.55 352.17,849.45 345.23,851.46" type="building"/>
   <poly color="red" fill="1" id="165544717" layer="-1.00" shape="359.65,847.65 357.39,839.31 364.83,837.34 365.95,841.67 367.01,845.75 359.65,847.65" type="building"/>
   <poly color="red" fill="1" id="165544721" layer="-1.00" shape="423.43,740.38 417.57,731.44 427.31,725.08 433.18,734.02 423.43,740.38" type="building"/>
   <poly color="red" fill="0" id="165544778" layer="-1.00" shape="329.85,843.78 335.38,842.03 337.02,841.52" type="building"/>
   <poly color="red" fill="1" id="165549281" layer="-1.00" shape="200.13,673.52 194.07,667.85 198.20,663.46 204.26,669.12 200.13,673.52" type="building"/>
   <poly color="red" fill="1" id="165549283" layer="-1.00" shape="175.65,702.83 170.45,697.74 175.71,692.13 178.73,694.69 178.20,695.44 180.27,697.03 175.65,702.83" type="building"/>
   <poly color="red" fill="1" id="165549284" layer="-1.00" shape="218.12,632.75 214.58,629.44 215.43,628.54 209.11,622.59 217.25,614.00 227.10,623.28 218.12,632.75" type="building"/>
   <poly color="red" fill="1" id="165549288" layer="-1.00" shape="208.64,655.78 204.35,651.84 208.71,647.68 213.15,651.70 208.64,655.78" type="building"/>
   <poly color="red" fill="1" id="165549292" layer="-1.00" shape="186.34,685.98 183.15,682.69 189.92,676.15 193.11,679.46 186.34,685.98" type="building"/>
   <poly color="red" fill="1" id="165549294" layer="-1.00" shape="178.39,674.68 168.56,664.79 176.70,656.76 186.51,666.64 178.39,674.68" type="building"/>
   <poly color="red" fill="1" id="165549295" layer="-1.00" shape="207.40,720.16 206.05,708.30 216.53,707.12 217.49,715.53 216.02,715.69 216.42,719.15 207.40,720.16" type="building"/>
   <poly color="red" fill="1" id="165549299" layer="-1.00" shape="167.12,689.03 156.79,679.37 163.37,672.38 169.94,678.53 170.92,677.49 174.67,680.99 167.12,689.03" type="building"/>
   <poly color="red" fill="1" id="165549303" layer="-1.00" shape="154.97,704.29 145.73,695.30 152.29,688.59 161.53,697.58 154.97,704.29" type="building"/>
   <poly color="red" fill="1" id="165549306" layer="-1.00" shape="192.43,658.13 183.65,649.43 185.93,647.69 185.96,645.53 187.31,644.26 188.42,644.16 189.86,645.75 191.27,644.27 198.53,651.61 192.43,658.13" type="building"/>
   <poly color="red" fill="1" id="165549309" layer="-1.00" shape="204.24,645.08 198.22,638.94 197.65,639.50 194.46,636.25 201.81,629.07 211.02,638.46 204.24,645.08" type="building"/>
   <poly color="red" fill="1" id="165549318" layer="-1.00" shape="184.98,721.80 184.09,712.31 197.92,711.02 198.81,720.51 184.98,721.80" type="building"/>
   <poly color="red" fill="1" id="165549320" layer="-1.00" shape="158.96,714.96 165.08,706.21 170.71,710.12 164.60,718.87 158.96,714.96" type="building"/>
   <poly color="red" fill="1" id="165551593" layer="-1.00" shape="31.03,724.39 27.03,718.17 32.81,714.48 36.82,720.70 31.03,724.39" type="building"/>
   <poly color="red" fill="1" id="165551600" layer="-1.00" shape="12.55,739.22 6.86,729.96 14.71,725.16 20.41,734.41 12.55,739.22" type="building"/>
   <poly color="red" fill="1" id="321184648" layer="-1.00" shape="468.74,555.49 465.32,550.70 468.10,548.73 466.29,546.21 468.77,544.45 470.55,546.94 471.08,546.56 474.00,550.66 471.67,552.31 472.20,553.04 468.74,555.49" type="building"/>
   <poly color="red" fill="1" id="321184649" layer="-1.00" shape="316.66,655.89 312.93,658.39 311.19,655.82 307.86,650.89 311.41,648.38 320.80,642.33 326.51,638.36 329.09,642.06 322.05,646.79 324.44,650.34 316.51,655.66 316.66,655.89" type="building"/>
   <poly color="red" fill="1" id="321184650" layer="-1.00" shape="438.44,693.26 431.20,683.80 425.27,688.05 420.50,680.98 435.26,670.22 440.21,676.46 445.16,683.42 445.68,683.85 443.55,685.48 445.43,687.95 440.64,691.59 438.44,693.26" type="building"/>
   <poly color="red" fill="1" id="321184651" layer="-1.00" shape="354.62,641.42 350.08,635.35 343.23,640.45 342.41,639.36 340.92,640.48 341.99,641.89 340.09,643.31 339.51,642.53 337.44,644.06 338.16,645.03 335.71,646.86 339.87,652.41 354.62,641.42" type="building"/>
   <poly color="red" fill="1" id="321184652" layer="-1.00" shape="445.27,635.24 445.55,634.17 446.63,633.94 447.37,634.67 448.37,634.14 450.36,637.84 451.55,637.21 453.69,641.19 442.74,646.93 437.97,639.02 445.27,635.24" type="building"/>
   <poly color="red" fill="1" id="321184653" layer="-1.00" shape="511.44,605.20 509.32,602.63 513.56,599.11 515.70,601.67 511.44,605.20" type="building"/>
   <poly color="red" fill="1" id="321184654" layer="-1.00" shape="440.70,614.49 431.59,605.25 429.72,607.43 438.76,616.54 440.70,614.49" type="building"/>
   <poly color="red" fill="1" id="321184655" layer="-1.00" shape="482.22,702.61 485.50,699.83 490.05,706.24 486.99,708.84 482.22,702.61" type="building"/>
   <poly color="red" fill="1" id="321184656" layer="-1.00" shape="392.77,694.44 388.14,689.52 392.69,685.26 397.32,690.18 392.77,694.44" type="building"/>
   <poly color="red" fill="1" id="321184657" layer="-1.00" shape="506.49,653.13 502.41,648.28 504.02,646.94 508.10,651.78 506.49,653.13" type="building"/>
   <poly color="red" fill="1" id="321184658" layer="-1.00" shape="372.77,694.12 376.19,693.06 377.63,697.67 374.22,698.74 372.77,694.12" type="building"/>
   <poly color="red" fill="1" id="321184659" layer="-1.00" shape="369.85,581.67 361.40,580.29 360.71,576.79 368.35,575.22 369.85,581.67" type="building"/>
   <poly color="red" fill="1" id="321184660" layer="-1.00" shape="455.80,700.28 461.07,695.01 464.45,699.37 459.15,704.15 455.80,700.28" type="building"/>
   <poly color="red" fill="1" id="321184661" layer="-1.00" shape="474.44,597.88 477.88,594.58 479.54,596.29 476.10,599.60 474.44,597.88" type="building"/>
   <poly color="red" fill="1" id="321184662" layer="-1.00" shape="376.19,693.06 378.54,692.24 381.87,696.42 377.63,697.67 376.19,693.06" type="building"/>
   <poly color="red" fill="1" id="321184663" layer="-1.00" shape="311.19,655.82 309.94,657.02 305.89,652.93 307.86,650.89 311.19,655.82" type="building"/>
   <poly color="red" fill="1" id="321184664" layer="-1.00" shape="390.88,559.17 389.40,555.97 393.14,554.24 394.63,557.44 390.88,559.17" type="building"/>
   <poly color="red" fill="1" id="321184665" layer="-1.00" shape="445.78,668.26 440.82,662.04 438.09,658.62 442.37,656.16 449.25,665.12 445.78,668.26" type="building"/>
   <poly color="red" fill="1" id="321184666" layer="-1.00" shape="476.31,610.33 471.61,605.02 479.90,597.73 484.59,603.04 476.31,610.33" type="building"/>
   <poly color="red" fill="1" id="321184667" layer="-1.00" shape="454.83,631.45 452.14,628.76 460.98,619.95 463.68,622.63 454.83,631.45" type="building"/>
   <poly color="red" fill="1" id="321184668" layer="-1.00" shape="374.37,573.88 374.43,582.78 369.85,581.67 368.35,575.22 374.37,573.88" type="building"/>
   <poly color="red" fill="1" id="321184669" layer="-1.00" shape="484.94,710.54 484.24,709.53 480.61,703.99 482.22,702.61 486.99,708.84 486.55,709.36 484.94,710.54" type="building"/>
   <poly color="red" fill="1" id="321184670" layer="-1.00" shape="393.69,604.70 392.64,602.38 395.59,600.97 396.56,603.33 393.69,604.70" type="building"/>
   <poly color="red" fill="1" id="321184671" layer="-1.00" shape="368.35,575.22 367.25,569.96 374.30,568.49 374.37,573.88 368.35,575.22" type="building"/>
   <poly color="red" fill="1" id="321184672" layer="-1.00" shape="367.64,700.89 366.17,696.26 372.77,694.12 374.22,698.74 367.64,700.89" type="building"/>
   <poly color="red" fill="1" id="321184673" layer="-1.00" shape="330.79,573.35 326.62,575.97 324.50,572.62 328.67,570.00 330.79,573.35" type="building"/>
   <poly color="red" fill="1" id="321184674" layer="-1.00" shape="455.55,657.60 452.97,654.22 457.43,650.84 460.01,654.22 455.55,657.60" type="building"/>
   <poly color="red" fill="1" id="321184675" layer="-1.00" shape="341.05,585.79 336.50,589.23 338.06,591.70 343.03,589.40 341.05,585.79" type="building"/>
   <poly color="red" fill="1" id="321184676" layer="-1.00" shape="495.23,622.80 499.06,628.37 502.28,625.95 497.81,620.57 495.23,622.80" type="building"/>
   <poly color="red" fill="1" id="321184677" layer="-1.00" shape="364.08,599.58 364.07,590.11 373.65,590.09 373.66,599.57 364.08,599.58" type="building"/>
   <poly color="red" fill="1" id="321184678" layer="-1.00" shape="357.41,682.60 357.53,682.46 364.90,688.27 359.12,689.74 357.41,682.60" type="building"/>
   <poly color="red" fill="1" id="321184679" layer="-1.00" shape="440.21,676.46 443.20,674.35 448.15,681.31 445.16,683.42 440.21,676.46" type="building"/>
   <poly color="red" fill="1" id="321184680" layer="-1.00" shape="487.65,652.15 482.69,646.23 491.62,638.79 496.58,644.71 487.65,652.15" type="building"/>
   <poly color="red" fill="1" id="321184681" layer="-1.00" shape="410.05,715.00 406.51,711.77 413.36,704.41 417.14,708.27 410.05,715.00" type="building"/>
   <poly color="red" fill="1" id="321184682" layer="-1.00" shape="311.17,633.92 308.53,629.85 314.55,625.97 317.19,630.02 311.17,633.92" type="building"/>
   <poly color="red" fill="1" id="321184683" layer="-1.00" shape="401.29,600.70 398.44,595.74 401.63,594.15 404.20,599.07 401.29,600.70" type="building"/>
   <poly color="red" fill="1" id="321184684" layer="-1.00" shape="343.34,574.02 347.24,571.89 350.45,577.76 346.55,579.89 343.34,574.02" type="building"/>
   <poly color="red" fill="1" id="321184685" layer="-1.00" shape="336.95,655.53 333.97,651.51 336.24,649.83 339.23,653.86 336.95,655.53" type="building"/>
   <poly color="red" fill="1" id="321184686" layer="-1.00" shape="401.49,555.56 398.51,557.64 395.47,553.30 398.45,551.22 401.49,555.56" type="building"/>
   <poly color="red" fill="1" id="321184687" layer="-1.00" shape="492.03,535.48 490.45,533.62 486.36,536.62 487.83,538.59 492.03,535.48" type="building"/>
   <poly color="red" fill="1" id="321184689" layer="-1.00" shape="402.83,639.51 401.77,638.15 399.22,640.13 400.28,641.49 402.83,639.51" type="building"/>
   <poly color="red" fill="1" id="321184690" layer="-1.00" shape="500.16,613.04 493.57,604.96 498.75,600.14 505.93,608.51 500.16,613.04" type="building"/>
   <poly color="red" fill="1" id="321184691" layer="-1.00" shape="353.07,531.76 355.63,530.04 357.93,536.97 354.89,538.19 353.07,531.76" type="building"/>
   <poly color="red" fill="1" id="321184692" layer="-1.00" shape="421.99,573.10 418.16,566.84 421.35,564.91 425.18,571.17 421.99,573.10" type="building"/>
   <poly color="red" fill="1" id="321184693" layer="-1.00" shape="408.53,576.74 406.96,574.12 410.22,572.18 411.79,574.80 408.53,576.74" type="building"/>
   <poly color="red" fill="1" id="321184694" layer="-1.00" shape="341.47,698.08 340.86,690.44 346.91,689.96 347.52,697.60 341.47,698.08" type="building"/>
   <poly color="red" fill="1" id="321184695" layer="-1.00" shape="324.01,576.90 317.41,568.66 310.81,573.92 317.41,582.15 324.01,576.90" type="building"/>
   <poly color="red" fill="1" id="321184696" layer="-1.00" shape="493.98,704.90 488.05,697.66 489.86,696.11 496.26,703.08 493.98,704.90" type="building"/>
   <poly color="red" fill="1" id="321184697" layer="-1.00" shape="492.05,586.52 490.08,584.34 492.65,582.04 494.62,584.23 492.05,586.52" type="building"/>
   <poly color="red" fill="1" id="321184698" layer="-1.00" shape="472.38,537.74 469.19,533.39 473.94,529.94 477.12,534.28 472.38,537.74" type="building"/>
   <poly color="red" fill="1" id="321184699" layer="-1.00" shape="362.41,545.15 361.47,542.26 366.05,540.79 366.99,543.68 362.41,545.15" type="building"/>
   <poly color="red" fill="1" id="321184700" layer="-1.00" shape="479.72,538.10 484.69,534.39 486.36,536.62 481.39,540.32 479.72,538.10" type="building"/>
   <poly color="red" fill="1" id="321184701" layer="-1.00" shape="425.00,645.13 434.56,640.10 438.00,647.71 429.04,652.52 425.00,645.13" type="building"/>
   <poly color="red" fill="1" id="321184702" layer="-1.00" shape="343.14,594.05 344.82,592.67 347.26,597.13 346.32,598.27 343.14,594.05" type="building"/>
   <poly color="red" fill="1" id="321184703" layer="-1.00" shape="528.31,614.36 523.38,610.09 518.50,614.58 523.01,619.45 528.31,614.36" type="building"/>
   <poly color="red" fill="1" id="321184704" layer="-1.00" shape="482.80,542.19 481.39,540.32 486.36,536.62 487.83,538.59 482.80,542.19" type="building"/>
   <poly color="red" fill="1" id="321184705" layer="-1.00" shape="311.41,648.38 309.68,645.71 319.06,639.65 320.80,642.33 311.41,648.38" type="building"/>
   <poly color="red" fill="1" id="321184706" layer="-1.00" shape="426.76,553.38 428.70,552.05 430.21,554.22 428.26,555.56 426.76,553.38" type="building"/>
   <poly color="red" fill="1" id="321184707" layer="-1.00" shape="404.39,566.26 401.40,561.66 404.32,559.76 407.30,564.32 404.39,566.26" type="building"/>
   <poly color="red" fill="1" id="321184708" layer="-1.00" shape="363.36,553.06 373.75,549.67 375.30,557.28 365.01,560.13 363.36,553.06" type="building"/>
   <poly color="red" fill="1" id="321184709" layer="-1.00" shape="420.50,680.98 411.90,686.76 416.67,693.82 425.27,688.05 420.50,680.98" type="building"/>
   <poly color="red" fill="1" id="321184710" layer="-1.00" shape="491.22,625.80 495.23,622.80 499.06,628.37 495.19,631.09 491.22,625.80" type="building"/>
   <poly color="red" fill="1" id="321184711" layer="-1.00" shape="462.67,620.19 457.80,614.24 467.46,606.38 472.33,612.33 462.67,620.19" type="building"/>
   <poly color="red" fill="1" id="321184712" layer="-1.00" shape="341.47,634.14 338.41,630.29 343.64,626.18 346.70,630.03 341.47,634.14" type="building"/>
   <poly color="red" fill="1" id="321184713" layer="-1.00" shape="419.49,576.95 416.01,579.14 411.27,571.39 414.73,569.10 419.49,576.95" type="building"/>
   <poly color="red" fill="1" id="321184714" layer="-1.00" shape="402.82,645.42 400.84,643.49 399.69,644.67 401.66,646.59 402.82,645.42" type="building"/>
   <poly color="red" fill="1" id="321184715" layer="-1.00" shape="342.60,716.66 343.71,720.33 347.23,719.89 346.62,716.49 342.60,716.66" type="building"/>
   <poly color="red" fill="1" id="321184717" layer="-1.00" shape="459.15,704.15 453.53,708.84 450.61,704.76 455.80,700.28 459.15,704.15" type="building"/>
   <poly color="red" fill="1" id="321184718" layer="-1.00" shape="502.28,625.95 506.83,622.20 509.30,625.32 504.78,629.09 502.28,625.95" type="building"/>
   <poly color="red" fill="1" id="321184719" layer="-1.00" shape="465.35,684.15 462.00,679.89 454.08,686.06 457.42,690.34 465.35,684.15" type="building"/>
   <poly color="red" fill="1" id="321184720" layer="-1.00" shape="336.07,714.25 334.55,708.18 341.82,706.16 342.13,712.75 336.07,714.25" type="building"/>
   <poly color="red" fill="1" id="321184721" layer="-1.00" shape="475.03,547.35 472.06,543.59 475.04,541.25 477.92,545.08 475.03,547.35" type="building"/>
   <poly color="red" fill="1" id="321184722" layer="-1.00" shape="365.51,525.39 366.38,525.10 372.20,524.01 373.85,532.02 367.30,533.46 365.51,525.39" type="building"/>
   <poly color="red" fill="1" id="321184724" layer="-1.00" shape="467.92,616.90 472.94,612.86 475.26,615.74 470.24,619.76 467.92,616.90" type="building"/>
   <poly color="red" fill="1" id="321184725" layer="-1.00" shape="336.96,718.28 336.07,714.25 342.13,712.75 342.60,716.66 336.96,718.28" type="building"/>
   <poly color="red" fill="1" id="321184726" layer="-1.00" shape="337.48,574.58 336.45,572.69 341.19,570.11 342.23,571.99 337.48,574.58" type="building"/>
   <poly color="red" fill="1" id="321184727" layer="-1.00" shape="488.10,639.97 485.28,636.69 488.54,633.92 491.35,637.20 488.10,639.97" type="building"/>
   <poly color="red" fill="1" id="321184728" layer="-1.00" shape="394.95,587.79 393.40,584.11 396.24,582.23 397.24,584.44 397.93,585.98 394.95,587.79" type="building"/>
   <poly color="red" fill="1" id="321184729" layer="-1.00" shape="467.43,626.48 463.02,620.81 467.92,616.90 470.24,619.76 472.42,622.50 467.43,626.48" type="building"/>
   <poly color="red" fill="1" id="321184730" layer="-1.00" shape="524.60,630.35 520.35,625.91 522.35,623.83 528.31,618.32 532.56,622.76 524.60,630.35" type="building"/>
   <poly color="red" fill="1" id="321184731" layer="-1.00" shape="419.49,576.95 414.73,569.10 418.16,566.84 421.99,573.10 422.68,575.29 419.49,576.95" type="building"/>
   <poly color="red" fill="1" id="321184732" layer="-1.00" shape="450.93,613.43 446.83,609.13 448.25,607.78 448.98,607.12 452.96,611.77 450.93,613.43" type="building"/>
   <poly color="red" fill="1" id="321184733" layer="-1.00" shape="386.91,609.61 386.35,608.43 388.87,606.98 390.60,612.33 388.78,613.90 386.91,609.61" type="building"/>
   <poly color="red" fill="1" id="321184734" layer="-1.00" shape="418.39,648.80 416.02,644.28 413.40,639.28 416.54,637.65 421.53,647.17 418.39,648.80" type="building"/>
   <poly color="red" fill="1" id="321184735" layer="-1.00" shape="492.47,600.41 485.84,592.82 491.88,587.58 492.60,586.96 499.22,594.56 492.47,600.41" type="building"/>
   <poly color="red" fill="1" id="321184736" layer="-1.00" shape="383.05,684.31 387.69,679.89 392.69,685.26 388.14,689.52 387.61,689.08 383.05,684.31" type="building"/>
   <poly color="red" fill="1" id="321184737" layer="-1.00" shape="492.90,694.40 489.22,690.36 491.99,687.85 494.91,685.20 498.59,689.24 492.90,694.40" type="building"/>
   <poly color="red" fill="1" id="321184738" layer="-1.00" shape="354.52,591.90 351.87,578.54 360.71,576.79 361.40,580.29 363.36,590.15 354.52,591.90" type="building"/>
   <poly color="red" fill="1" id="321184739" layer="-1.00" shape="409.12,583.56 414.04,580.48 417.16,585.42 412.24,588.49 410.82,586.25 409.12,583.56" type="building"/>
   <poly color="red" fill="1" id="321184740" layer="-1.00" shape="384.24,617.82 381.39,612.99 383.69,611.59 386.91,609.61 388.78,613.90 384.24,617.82" type="building"/>
   <poly color="red" fill="1" id="321184741" layer="-1.00" shape="349.42,545.77 346.54,536.20 353.07,531.76 354.89,538.19 356.53,544.02 349.42,545.77" type="building"/>
   <poly color="red" fill="1" id="321184742" layer="-1.00" shape="355.63,530.04 362.29,526.42 365.51,525.39 367.30,533.46 357.93,536.97 355.63,530.04" type="building"/>
   <poly color="red" fill="1" id="321184743" layer="-1.00" shape="445.29,622.65 438.76,616.54 440.70,614.49 443.36,611.65 449.89,617.75 445.29,622.65" type="building"/>
   <poly color="red" fill="1" id="321184744" layer="-1.00" shape="398.44,595.74 396.03,590.93 399.23,589.34 400.79,592.47 401.63,594.15 398.44,595.74" type="building"/>
   <poly color="red" fill="1" id="321184745" layer="-1.00" shape="413.08,589.73 412.24,588.49 417.16,585.42 417.71,586.23 414.47,588.82 413.08,589.73" type="building"/>
   <poly color="red" fill="1" id="321184746" layer="-1.00" shape="443.36,611.65 435.50,602.88 440.23,598.87 448.25,607.78 446.83,609.13 443.36,611.65" type="building"/>