<?xml version="1.0" encoding="utf-8"?><!-- generated on 10/11/17 17:52:22 by SUMO netconvert Version 0.25.0
<?xml version="1.0" encoding="UTF-8"?>

<configuration xmlns:xsi="http://www.w3.org/2001/XMLSchema-instance" xsi:noNamespaceSchemaLocation="http://sumo.dlr.de/xsd/netconvertConfiguration.xsd">

    <input>
        <type-files value="osmNetconvert.typ.xml"/>
        <osm-files value="EM_Wyhl_rural_800.osm"/>
    </input>

    <output>
        <output-file value="EM_Wyhl_rural_800.net.xml"/>
    </output>

    <projection>
        <proj.utm value="true"/>
    </projection>

    <edge_removal>
        <remove-edges.by-type value="highway.track,highway.unsurfaced,highway.raceway,highway.bridleway,highway.path,highway.footway,highway.pedestrian,highway.cycleway,highway.step,highway.steps,highway.stairs,highway.bus_guideway,highway.ford,railway.rail,railway.tram,railway.light_rail,railway.subway,railway.preserved,railway.narrow_gauge,railway.monorail,railway.funicular"/>
    </edge_removal>

</configuration>
-->
<net version="0.25">
   <location convBoundary="0.00,0.00,868.38,853.36" netOffset="-399161.30,-5334971.02" origBoundary="7.643908,48.160023,7.655598,48.167698" projParameter="+proj=utm +zone=32 +ellps=WGS84 +datum=WGS84 +units=m +no_defs"/>
   <type allow="pedestrian" id="highway.bridleway" numLanes="1" oneway="1" priority="1" speed="2.78" width="2.00"/>
   <type allow="bus" id="highway.bus_guideway" numLanes="1" oneway="1" priority="1" speed="8.33"/>
   <type allow="bicycle" id="highway.cycleway" numLanes="1" oneway="0" priority="1" speed="5.56" width="1.00"/>
   <type allow="pedestrian" id="highway.footway" numLanes="1" oneway="1" priority="1" speed="8.33" width="2.00"/>
   <type allow="army" id="highway.ford" numLanes="1" oneway="0" priority="1" speed="2.78"/>
   <type disallow="tram rail_urban rail rail_electric ship" id="highway.living_street" numLanes="1" oneway="0" priority="3" speed="2.78"/>
   <type allow="private emergency authority army vip passenger hov taxi bus coach delivery truck trailer motorcycle evehicle custom1 custom2" id="highway.motorway" numLanes="2" oneway="1" priority="13" speed="44.44"/>
   <type allow="private emergency authority army vip passenger hov taxi bus coach delivery truck trailer motorcycle evehicle custom1 custom2" id="highway.motorway_link" numLanes="1" oneway="1" priority="12" speed="22.22"/>
   <type allow="bicycle pedestrian" id="highway.path" numLanes="1" oneway="1" priority="1" speed="2.78" width="2.00"/>
   <type allow="pedestrian" id="highway.pedestrian" numLanes="1" oneway="1" priority="1" speed="8.33" width="2.00"/>
   <type disallow="tram rail_urban rail rail_electric ship" id="highway.primary" numLanes="2" oneway="0" priority="9" speed="27.78"/>
   <type disallow="tram rail_urban rail rail_electric ship" id="highway.primary_link" numLanes="1" oneway="0" priority="8" speed="22.22"/>
   <type allow="vip" id="highway.raceway" numLanes="2" oneway="0" priority="14" speed="83.33"/>
   <type disallow="tram rail_urban rail rail_electric ship" id="highway.residential" numLanes="1" oneway="0" priority="4" speed="13.89"/>
   <type disallow="tram rail_urban rail rail_electric ship" id="highway.secondary" numLanes="2" oneway="0" priority="7" speed="27.78"/>
   <type disallow="tram rail_urban rail rail_electric ship" id="highway.secondary_link" numLanes="1" oneway="0" priority="6" speed="22.22"/>
   <type allow="delivery bicycle pedestrian" id="highway.service" numLanes="1" oneway="0" priority="2" speed="5.56"/>
   <type disallow="tram rail_urban rail rail_electric ship" id="highway.services" numLanes="1" oneway="0" priority="1" speed="8.33"/>
   <type allow="pedestrian" id="highway.stairs" numLanes="1" oneway="1" priority="1" speed="1.39" width="2.00"/>
   <type allow="pedestrian" id="highway.step" numLanes="1" oneway="1" priority="1" speed="1.39" width="2.00"/>
   <type allow="pedestrian" id="highway.steps" numLanes="1" oneway="1" priority="1" speed="1.39" width="2.00"/>
   <type disallow="tram rail_urban rail rail_electric ship" id="highway.tertiary" numLanes="1" oneway="0" priority="6" speed="22.22"/>
   <type disallow="tram rail_urban rail rail_electric ship" id="highway.tertiary_link" numLanes="1" oneway="0" priority="5" speed="22.22"/>
   <type disallow="tram rail_urban rail rail_electric ship" id="highway.track" numLanes="1" oneway="0" priority="1" speed="5.56"/>
   <type disallow="tram rail_urban rail rail_electric bicycle pedestrian ship" id="highway.trunk" numLanes="2" oneway="0" priority="11" speed="27.78"/>
   <type disallow="tram rail_urban rail rail_electric bicycle pedestrian ship" id="highway.trunk_link" numLanes="1" oneway="0" priority="10" speed="22.22"/>
   <type disallow="tram rail_urban rail rail_electric ship" id="highway.unclassified" numLanes="1" oneway="0" priority="5" speed="13.89"/>
   <type disallow="tram rail_urban rail rail_electric ship" id="highway.unsurfaced" numLanes="1" oneway="0" priority="1" speed="8.33"/>
   <type allow="rail_urban" id="railway.light_rail" numLanes="1" oneway="1" priority="15" speed="27.78"/>
   <type allow="rail" id="railway.preserved" numLanes="1" oneway="1" priority="15" speed="27.78"/>
   <type allow="rail rail_electric" id="railway.rail" numLanes="1" oneway="1" priority="15" speed="83.33"/>
   <type allow="rail_urban" id="railway.subway" numLanes="1" oneway="1" priority="15" speed="27.78"/>
   <type allow="tram" id="railway.tram" numLanes="1" oneway="1" priority="15" speed="13.89"/>
   <edge function="internal" id=":1602588917_0">
      <lane disallow="tram rail_urban rail rail_electric ship" id=":1602588917_0_0" index="0" length="7.34" shape="172.70,403.62 171.72,402.81 170.24,402.32 168.24,402.15 165.74,402.31" speed="18.06"/>
   </edge>
   <edge function="internal" id=":1602588917_1">
      <lane disallow="tram rail_urban rail rail_electric ship" id=":1602588917_1_0" index="0" length="10.04" shape="172.70,403.62 170.95,401.22 169.83,399.51 168.79,397.74 167.31,395.17" speed="27.78"/>
   </edge>
   <edge function="internal" id=":1602588917_2">
      <lane disallow="tram rail_urban rail rail_electric ship" id=":1602588917_2_0" index="0" length="2.59" shape="172.70,403.62 172.62,402.14 173.03,401.31 173.21,401.28" speed="27.78"/>
   </edge>
   <edge function="internal" id=":1602588917_9">
      <lane id=":1602588917_9_0" index="0" length="2.23" shape="173.21,401.28 173.94,401.15 175.34,401.65" speed="27.78"/>
   </edge>
   <edge function="internal" id=":1602588917_3">
      <lane disallow="tram rail_urban rail rail_electric ship" id=":1602588917_3_0" index="0" length="9.66" shape="170.16,393.50 175.34,401.65" speed="27.78"/>
   </edge>
   <edge function="internal" id=":1602588917_4">
      <lane disallow="tram rail_urban rail rail_electric ship" id=":1602588917_4_0" index="0" length="5.77" shape="170.16,393.50 171.59,396.97 171.39,398.98" speed="18.06"/>
   </edge>
   <edge function="internal" id=":1602588917_5">
      <lane disallow="tram rail_urban rail rail_electric ship" id=":1602588917_5_0" index="0" length="2.41" shape="170.16,393.50 170.07,394.98 169.56,395.76" speed="27.78"/>
   </edge>
   <edge function="internal" id=":1602588917_10">
      <lane id=":1602588917_10_0" index="0" length="7.02" shape="171.39,398.98 171.33,399.60 169.38,401.37 165.74,402.31" speed="18.06"/>
   </edge>
   <edge function="internal" id=":1602588917_11">
      <lane id=":1602588917_11_0" index="0" length="2.41" shape="169.56,395.76 168.64,395.82 167.31,395.17" speed="27.78"/>
   </edge>
   <edge function="internal" id=":1602588917_6">
      <lane disallow="tram rail_urban rail rail_electric ship" id=":1602588917_6_0" index="0" length="5.61" shape="165.37,399.03 166.97,398.62 167.82,397.84 167.94,396.69 167.31,395.17" speed="18.06"/>
   </edge>
   <edge function="internal" id=":1602588917_7">
      <lane disallow="tram rail_urban rail rail_electric ship" id=":1602588917_7_0" index="0" length="10.76" shape="165.37,399.03 168.77,398.88 171.56,399.26 173.75,400.19 175.34,401.65" speed="18.06"/>
   </edge>
   <edge function="internal" id=":1602588917_8">
      <lane disallow="tram rail_urban rail rail_electric ship" id=":1602588917_8_0" index="0" length="4.82" shape="165.37,399.03 166.69,399.71 167.20,400.48 166.88,401.35 165.74,402.31" speed="8.33"/>
   </edge>
   <edge function="internal" id=":1763708780_0">
      <lane disallow="tram rail_urban rail rail_electric ship" id=":1763708780_0_0" index="0" length="4.82" shape="19.80,415.53 18.31,415.54 17.51,415.09 17.39,414.17 17.95,412.80" speed="8.33"/>
   </edge>
   <edge function="internal" id=":1763708790_0">
      <lane allow="delivery bicycle pedestrian" id=":1763708790_0_0" index="0" length="0.93" shape="67.19,421.68 66.52,421.03" speed="6.95"/>
   </edge>
   <edge function="internal" id=":1763708790_1">
      <lane disallow="tram rail_urban rail rail_electric ship" id=":1763708790_1_0" index="0" length="0.93" shape="67.19,421.68 66.52,421.03" speed="8.33"/>
   </edge>
   <edge function="internal" id=":1763708790_2">
      <lane allow="delivery bicycle pedestrian" id=":1763708790_2_0" index="0" length="3.74" shape="67.19,421.68 69.41,418.67" speed="6.95"/>
   </edge>
   <edge function="internal" id=":1763708790_3">
      <lane disallow="tram rail_urban rail rail_electric ship" id=":1763708790_3_0" index="0" length="3.78" shape="67.19,421.68 66.62,420.10 66.80,419.07 67.73,418.59" speed="8.33"/>
   </edge>
   <edge function="internal" id=":1763708790_16">
      <lane id=":1763708790_16_0" index="0" length="1.69" shape="67.73,418.59 69.41,418.67" speed="8.33"/>
   </edge>
   <edge function="internal" id=":1763708790_4">
      <lane allow="delivery bicycle pedestrian" id=":1763708790_4_0" index="0" length="0.93" shape="67.19,421.68 66.52,421.03" speed="5.56"/>
   </edge>
   <edge function="internal" id=":1763708790_5">
      <lane disallow="tram rail_urban rail rail_electric ship" id=":1763708790_5_0" index="0" length="0.93" shape="67.19,421.68 66.52,421.03" speed="6.95"/>
   </edge>
   <edge function="internal" id=":1763708790_6">
      <lane disallow="tram rail_urban rail rail_electric ship" id=":1763708790_6_0" index="0" length="3.74" shape="67.19,421.68 69.41,418.67" speed="6.95"/>
   </edge>
   <edge function="internal" id=":1763708790_7">
      <lane allow="delivery bicycle pedestrian" id=":1763708790_7_0" index="0" length="5.46" shape="67.19,421.68 66.62,420.10 66.80,419.07 67.73,418.59 69.41,418.67" speed="5.56"/>
   </edge>
   <edge function="internal" id=":1763708790_8">
      <lane allow="delivery bicycle pedestrian" id=":1763708790_8_0" index="0" length="1.30" shape="69.26,417.37 69.41,418.67" speed="6.95"/>
   </edge>
   <edge function="internal" id=":1763708790_9">
      <lane disallow="tram rail_urban rail rail_electric ship" id=":1763708790_9_0" index="0" length="1.30" shape="69.26,417.37 69.41,418.67" speed="8.33"/>
   </edge>
   <edge function="internal" id=":1763708790_10">
      <lane allow="delivery bicycle pedestrian" id=":1763708790_10_0" index="0" length="4.57" shape="69.26,417.37 66.52,421.03" speed="6.95"/>
   </edge>
   <edge function="internal" id=":1763708790_11">
      <lane disallow="tram rail_urban rail rail_electric ship" id=":1763708790_11_0" index="0" length="3.34" shape="69.26,417.37 69.95,419.32 69.72,420.57" speed="8.33"/>
   </edge>
   <edge function="internal" id=":1763708790_17">
      <lane id=":1763708790_17_0" index="0" length="3.34" shape="69.72,420.57 68.58,421.14 66.52,421.03" speed="8.33"/>
   </edge>
   <edge function="internal" id=":1763708790_12">
      <lane allow="delivery bicycle pedestrian" id=":1763708790_12_0" index="0" length="1.30" shape="69.26,417.37 69.41,418.67" speed="5.56"/>
   </edge>
   <edge function="internal" id=":1763708790_13">
      <lane disallow="tram rail_urban rail rail_electric ship" id=":1763708790_13_0" index="0" length="1.30" shape="69.26,417.37 69.41,418.67" speed="6.95"/>
   </edge>
   <edge function="internal" id=":1763708790_14">
      <lane disallow="tram rail_urban rail rail_electric ship" id=":1763708790_14_0" index="0" length="4.57" shape="69.26,417.37 66.52,421.03" speed="6.95"/>
   </edge>
   <edge function="internal" id=":1763708790_15">
      <lane allow="delivery bicycle pedestrian" id=":1763708790_15_0" index="0" length="6.67" shape="69.26,417.37 69.95,419.32 69.72,420.57 68.58,421.14 66.52,421.03" speed="5.56"/>
   </edge>
   <edge function="internal" id=":1763708904_0">
      <lane disallow="tram rail_urban rail rail_electric ship" id=":1763708904_0_0" index="0" length="0.10" shape="85.68,501.61 85.68,501.61" speed="8.33"/>
   </edge>
   <edge function="internal" id=":1763708904_1">
      <lane disallow="tram rail_urban rail rail_electric ship" id=":1763708904_1_0" index="0" length="2.41" shape="85.68,501.61 84.19,501.71 83.36,501.31" speed="8.33"/>
   </edge>
   <edge function="internal" id=":1763708904_4">
      <lane id=":1763708904_4_0" index="0" length="2.41" shape="83.36,501.31 83.19,500.40 83.66,499.00" speed="8.33"/>
   </edge>
   <edge function="internal" id=":1763708904_2">
      <lane disallow="tram rail_urban rail rail_electric ship" id=":1763708904_2_0" index="0" length="0.10" shape="83.66,498.99 83.66,499.00" speed="8.33"/>
   </edge>
   <edge function="internal" id=":1763708904_3">
      <lane disallow="tram rail_urban rail rail_electric ship" id=":1763708904_3_0" index="0" length="2.41" shape="83.66,498.99 85.15,498.89 85.98,499.30" speed="8.33"/>
   </edge>
   <edge function="internal" id=":1763708904_5">
      <lane id=":1763708904_5_0" index="0" length="2.41" shape="85.98,499.30 86.15,500.20 85.68,501.61" speed="8.33"/>
   </edge>
   <edge function="internal" id=":1763708915_0">
      <lane disallow="tram rail_urban rail rail_electric ship" id=":1763708915_0_0" index="0" length="0.10" shape="21.60,548.47 21.58,548.48" speed="8.33"/>
   </edge>
   <edge function="internal" id=":1763708915_1">
      <lane disallow="tram rail_urban rail rail_electric ship" id=":1763708915_1_0" index="0" length="2.41" shape="21.60,548.47 20.11,548.46 19.31,548.00" speed="8.33"/>
   </edge>
   <edge function="internal" id=":1763708915_4">
      <lane id=":1763708915_4_0" index="0" length="2.41" shape="19.31,548.00 19.20,547.08 19.79,545.71" speed="8.33"/>
   </edge>
   <edge function="internal" id=":1763708915_2">
      <lane disallow="tram rail_urban rail rail_electric ship" id=":1763708915_2_0" index="0" length="0.15" shape="19.67,545.79 19.79,545.71" speed="8.33"/>
   </edge>
   <edge function="internal" id=":1763708915_3">
      <lane disallow="tram rail_urban rail rail_electric ship" id=":1763708915_3_0" index="0" length="2.41" shape="19.67,545.79 21.15,545.75 21.97,546.18" speed="8.33"/>
   </edge>
   <edge function="internal" id=":1763708915_5">
      <lane id=":1763708915_5_0" index="0" length="2.41" shape="21.97,546.18 22.11,547.09 21.58,548.48" speed="8.33"/>
   </edge>
   <edge function="internal" id=":1768907021_0">
      <lane allow="delivery bicycle pedestrian" id=":1768907021_0_0" index="0" length="5.33" shape="477.60,417.07 476.32,417.41 475.40,418.15 474.84,419.29 474.63,420.83" speed="6.95"/>
   </edge>
   <edge function="internal" id=":1768907021_1">
      <lane disallow="tram rail_urban rail rail_electric ship" id=":1768907021_1_0" index="0" length="9.44" shape="477.60,417.07 468.18,417.75" speed="8.33"/>
   </edge>
   <edge function="internal" id=":1768907021_2">
      <lane disallow="tram rail_urban rail rail_electric ship" id=":1768907021_2_0" index="0" length="2.51" shape="477.60,417.07 476.28,416.37 475.79,415.59 475.83,415.49" speed="8.33"/>
   </edge>
   <edge function="internal" id=":1768907021_9">
      <lane id=":1768907021_9_0" index="0" length="2.31" shape="475.83,415.49 476.12,414.73 477.27,413.78" speed="8.33"/>
   </edge>
   <edge function="internal" id=":1768907021_3">
      <lane disallow="tram rail_urban rail rail_electric ship" id=":1768907021_3_0" index="0" length="9.29" shape="468.01,414.46 477.27,413.78" speed="8.33"/>
   </edge>
   <edge function="internal" id=":1768907021_4">
      <lane allow="delivery bicycle pedestrian" id=":1768907021_4_0" index="0" length="5.16" shape="468.01,414.46 470.94,414.73 472.88,415.81" speed="6.95"/>
   </edge>
   <edge function="internal" id=":1768907021_5">
      <lane disallow="tram rail_urban rail rail_electric ship" id=":1768907021_5_0" index="0" length="2.41" shape="468.01,414.46 469.29,415.22 469.74,416.02" speed="8.33"/>
   </edge>
   <edge function="internal" id=":1768907021_10">
      <lane id=":1768907021_10_0" index="0" length="5.48" shape="472.88,415.81 473.02,415.88 474.25,417.92 474.63,420.83" speed="6.95"/>
   </edge>
   <edge function="internal" id=":1768907021_11">
      <lane id=":1768907021_11_0" index="0" length="2.41" shape="469.74,416.02 469.37,416.87 468.18,417.75" speed="8.33"/>
   </edge>
   <edge function="internal" id=":1768907021_6">
      <lane disallow="tram rail_urban rail rail_electric ship" id=":1768907021_6_0" index="0" length="5.07" shape="471.33,420.79 471.15,419.40 470.56,418.43 469.57,417.88 468.18,417.75" speed="6.95"/>
   </edge>
   <edge function="internal" id=":1768907021_7">
      <lane disallow="tram rail_urban rail rail_electric ship" id=":1768907021_7_0" index="0" length="10.24" shape="471.33,420.79 471.73,417.94 472.86,415.82 474.70,414.44 477.27,413.78" speed="6.95"/>
   </edge>
   <edge function="internal" id=":1768907021_8">
      <lane allow="delivery bicycle pedestrian" id=":1768907021_8_0" index="0" length="4.82" shape="471.33,420.79 472.17,419.57 473.00,419.16 473.82,419.59 474.63,420.83" speed="5.56"/>
   </edge>
   <edge function="internal" id=":1768907993_0">
      <lane disallow="tram rail_urban rail rail_electric ship" id=":1768907993_0_0" index="0" length="8.65" shape="510.40,553.25 502.31,556.32" speed="22.22"/>
   </edge>
   <edge function="internal" id=":1768907993_1">
      <lane allow="delivery bicycle pedestrian" id=":1768907993_1_0" index="0" length="3.96" shape="510.40,553.25 508.12,553.41 506.51,552.93" speed="13.89"/>
   </edge>
   <edge function="internal" id=":1768907993_2">
      <lane disallow="tram rail_urban rail rail_electric ship" id=":1768907993_2_0" index="0" length="2.23" shape="510.40,553.25 509.00,552.74 508.53,552.17" speed="22.22"/>
   </edge>
   <edge function="internal" id=":1768907993_9">
      <lane id=":1768907993_9_0" index="0" length="6.04" shape="506.51,552.93 505.96,552.77 503.90,551.33 501.96,549.10" speed="13.89"/>
   </edge>
   <edge function="internal" id=":1768907993_10">
      <lane id=":1768907993_10_0" index="0" length="2.59" shape="508.53,552.17 508.41,552.03 508.62,551.13 509.63,550.04" speed="22.22"/>
   </edge>
   <edge function="internal" id=":1768907993_3">
      <lane disallow="tram rail_urban rail rail_electric ship" id=":1768907993_3_0" index="0" length="6.10" shape="504.63,547.17 505.88,548.65 507.13,549.62 508.38,550.09 509.63,550.04" speed="13.89"/>
   </edge>
   <edge function="internal" id=":1768907993_4">
      <lane disallow="tram rail_urban rail rail_electric ship" id=":1768907993_4_0" index="0" length="11.26" shape="504.63,547.17 506.10,549.98 506.20,552.44 504.93,554.55 502.31,556.32" speed="13.89"/>
   </edge>
   <edge function="internal" id=":1768907993_5">
      <lane allow="delivery bicycle pedestrian" id=":1768907993_5_0" index="0" length="4.82" shape="504.63,547.17 504.69,548.66 504.26,549.48 503.35,549.62 501.96,549.10" speed="5.56"/>
   </edge>
   <edge function="internal" id=":1768907993_6">
      <lane allow="delivery bicycle pedestrian" id=":1768907993_6_0" index="0" length="5.22" shape="500.88,553.35 502.09,552.53 502.68,551.55 502.63,550.40 501.96,549.10" speed="13.89"/>
   </edge>
   <edge function="internal" id=":1768907993_7">
      <lane disallow="tram rail_urban rail rail_electric ship" id=":1768907993_7_0" index="0" length="9.36" shape="500.88,553.35 509.63,550.04" speed="22.22"/>
   </edge>
   <edge function="internal" id=":1768907993_8">
      <lane disallow="tram rail_urban rail rail_electric ship" id=":1768907993_8_0" index="0" length="2.61" shape="500.88,553.35 502.35,553.55 503.08,554.12 503.08,554.32" speed="22.22"/>
   </edge>
   <edge function="internal" id=":1768907993_11">
      <lane id=":1768907993_11_0" index="0" length="2.21" shape="503.08,554.32 503.06,555.04 502.31,556.32" speed="22.22"/>
   </edge>
   <edge function="internal" id=":1768915162_0">
      <lane disallow="tram rail_urban rail rail_electric ship" id=":1768915162_0_0" index="0" length="4.84" shape="376.30,624.71 375.99,625.75 376.01,626.86 376.36,628.03 377.05,629.27" speed="18.06"/>
   </edge>
   <edge function="internal" id=":1768915162_1">
      <lane disallow="tram rail_urban rail rail_electric ship" id=":1768915162_1_0" index="0" length="4.82" shape="376.30,624.71 375.03,625.47 374.10,625.49 373.54,624.77 373.32,623.29" speed="8.33"/>
   </edge>
   <edge function="internal" id=":1768915162_2">
      <lane disallow="tram rail_urban rail rail_electric ship" id=":1768915162_2_0" index="0" length="4.92" shape="369.26,625.55 370.63,625.42 371.77,625.00 372.66,624.29 373.32,623.29" speed="18.06"/>
   </edge>
   <edge function="internal" id=":1768915162_3">
      <lane disallow="tram rail_urban rail rail_electric ship" id=":1768915162_3_0" index="0" length="8.99" shape="369.26,625.55 371.74,625.80 373.87,626.50 375.63,627.66 377.05,629.27" speed="27.78"/>
   </edge>
   <edge function="internal" id=":1768915188_0">
      <lane disallow="tram rail_urban rail rail_electric ship" id=":1768915188_0_0" index="0" length="5.75" shape="359.97,626.94 361.51,627.39 362.95,627.50 364.28,627.27 365.50,626.69" speed="27.78"/>
   </edge>
   <edge function="internal" id=":1768915188_1">
      <lane disallow="tram rail_urban rail rail_electric ship" id=":1768915188_1_0" index="0" length="2.71" shape="359.97,626.94 360.82,628.16 360.90,629.08 360.68,629.28" speed="27.78"/>
   </edge>
   <edge function="internal" id=":1768915188_4">
      <lane id=":1768915188_4_0" index="0" length="2.11" shape="360.68,629.28 360.22,629.70 358.77,630.01" speed="27.78"/>
   </edge>
   <edge function="internal" id=":1768915188_2">
      <lane disallow="tram rail_urban rail rail_electric ship" id=":1768915188_2_0" index="0" length="5.07" shape="361.05,634.16 360.94,632.69 360.52,631.51 359.80,630.62 358.77,630.01" speed="27.78"/>
   </edge>
   <edge function="internal" id=":1768915188_3">
      <lane disallow="tram rail_urban rail rail_electric ship" id=":1768915188_3_0" index="0" length="9.06" shape="361.05,634.16 361.38,631.93 362.23,629.94 363.60,628.19 365.50,626.69" speed="27.78"/>
   </edge>
   <edge function="internal" id=":1768921928_0">
      <lane disallow="tram rail_urban rail rail_electric ship" id=":1768921928_0_0" index="0" length="4.82" shape="383.03,846.37 381.65,845.81 381.09,845.08 381.33,844.19 382.38,843.14" speed="8.33"/>
   </edge>
   <edge function="internal" id=":1769007233_0">
      <lane allow="delivery bicycle pedestrian" id=":1769007233_0_0" index="0" length="4.41" shape="7.10,300.63 6.02,301.00 5.13,301.59 4.45,302.40 3.98,303.44" speed="6.95"/>
   </edge>
   <edge function="internal" id=":1769007233_1">
      <lane allow="delivery bicycle pedestrian" id=":1769007233_1_0" index="0" length="3.30" shape="7.10,300.63 6.41,297.41" speed="6.95"/>
   </edge>
   <edge function="internal" id=":1769007233_2">
      <lane disallow="tram rail_urban rail rail_electric ship" id=":1769007233_2_0" index="0" length="4.82" shape="7.10,300.63 5.72,300.08 5.14,299.36 5.37,298.47 6.41,297.41" speed="8.33"/>
   </edge>
   <edge function="internal" id=":1769007233_3">
      <lane allow="delivery bicycle pedestrian" id=":1769007233_3_0" index="0" length="4.41" shape="7.10,300.63 6.02,301.00 5.13,301.59 4.45,302.40 3.98,303.44" speed="5.56"/>
   </edge>
   <edge function="internal" id=":1769007233_4">
      <lane disallow="tram rail_urban rail rail_electric ship" id=":1769007233_4_0" index="0" length="3.30" shape="7.10,300.63 6.41,297.41" speed="6.95"/>
   </edge>
   <edge function="internal" id=":1769007233_5">
      <lane allow="delivery bicycle pedestrian" id=":1769007233_5_0" index="0" length="4.82" shape="7.10,300.63 5.72,300.08 5.14,299.36 5.37,298.47 6.41,297.41" speed="5.56"/>
   </edge>
   <edge function="internal" id=":1769007233_6">
      <lane allow="delivery bicycle pedestrian" id=":1769007233_6_0" index="0" length="7.86" shape="0.84,302.41 1.69,300.56 2.91,299.11 4.48,298.05 6.41,297.41" speed="5.56"/>
   </edge>
   <edge function="internal" id=":1769007233_7">
      <lane disallow="tram rail_urban rail rail_electric ship" id=":1769007233_7_0" index="0" length="7.86" shape="0.84,302.41 1.69,300.56 2.91,299.11 4.48,298.05 6.41,297.41" speed="6.95"/>
   </edge>
   <edge function="internal" id=":1769007233_8">
      <lane allow="delivery bicycle pedestrian" id=":1769007233_8_0" index="0" length="4.82" shape="0.84,302.41 2.01,301.49 2.92,301.36 3.58,302.00 3.98,303.44" speed="5.56"/>
   </edge>
   <edge function="internal" id=":1769007594_0">
      <lane allow="delivery bicycle pedestrian" id=":1769007594_0_0" index="0" length="4.82" shape="37.96,784.07 36.61,784.70 35.69,784.63 35.20,783.85 35.13,782.36" speed="5.56"/>
   </edge>
   <edge function="internal" id=":1769034716_0">
      <lane disallow="tram rail_urban rail rail_electric ship" id=":1769034716_0_0" index="0" length="0.10" shape="864.45,180.65 864.45,180.67" speed="22.22"/>
   </edge>
   <edge function="internal" id=":1769034716_1">
      <lane disallow="tram rail_urban rail rail_electric ship" id=":1769034716_1_0" index="0" length="2.41" shape="864.45,180.65 863.54,181.83 862.69,182.18" speed="22.22"/>
   </edge>
   <edge function="internal" id=":1769034716_4">
      <lane id=":1769034716_4_0" index="0" length="2.41" shape="862.69,182.18 861.90,181.71 861.16,180.42" speed="22.22"/>
   </edge>
   <edge function="internal" id=":1769034716_2">
      <lane disallow="tram rail_urban rail rail_electric ship" id=":1769034716_2_0" index="0" length="0.10" shape="861.16,180.40 861.16,180.42" speed="22.22"/>
   </edge>
   <edge function="internal" id=":1769034716_3">
      <lane disallow="tram rail_urban rail rail_electric ship" id=":1769034716_3_0" index="0" length="2.41" shape="861.16,180.40 862.09,179.23 862.94,178.89" speed="22.22"/>
   </edge>
   <edge function="internal" id=":1769034716_5">
      <lane id=":1769034716_5_0" index="0" length="2.41" shape="862.94,178.89 863.73,179.37 864.45,180.67" speed="22.22"/>
   </edge>
   <edge function="internal" id=":1769035005_0">
      <lane disallow="tram rail_urban rail rail_electric ship" id=":1769035005_0_0" index="0" length="0.91" shape="862.78,216.96 862.57,216.08" speed="22.22"/>
   </edge>
   <edge function="internal" id=":1769035005_1">
      <lane disallow="tram rail_urban rail rail_electric ship" id=":1769035005_1_0" index="0" length="2.41" shape="862.78,216.96 863.17,215.53 863.82,214.87" speed="22.22"/>
   </edge>
   <edge function="internal" id=":1769035005_4">
      <lane id=":1769035005_4_0" index="0" length="2.41" shape="863.82,214.87 864.73,215.00 865.91,215.91" speed="22.22"/>
   </edge>
   <edge function="internal" id=":1769035005_2">
      <lane disallow="tram rail_urban rail rail_electric ship" id=":1769035005_2_0" index="0" length="0.30" shape="865.84,215.62 865.91,215.91" speed="22.22"/>
   </edge>
   <edge function="internal" id=":1769035005_3">
      <lane disallow="tram rail_urban rail rail_electric ship" id=":1769035005_3_0" index="0" length="2.41" shape="865.84,215.62 865.19,216.96 864.43,217.49" speed="22.22"/>
   </edge>
   <edge function="internal" id=":1769035005_5">
      <lane id=":1769035005_5_0" index="0" length="2.41" shape="864.43,217.49 863.56,217.19 862.57,216.08" speed="22.22"/>
   </edge>
   <edge function="internal" id=":1769035032_0">
      <lane disallow="tram rail_urban rail rail_electric ship" id=":1769035032_0_0" index="0" length="6.45" shape="854.86,282.02 852.85,281.39 851.17,281.21 849.80,281.47 848.75,282.17" speed="13.89"/>
   </edge>
   <edge function="internal" id=":1769035032_1">
      <lane disallow="tram rail_urban rail rail_electric ship" id=":1769035032_1_0" index="0" length="11.90" shape="854.86,282.02 851.92,280.35 850.56,278.24 850.77,275.70 852.56,272.73" speed="13.89"/>
   </edge>
   <edge function="internal" id=":1769035032_2">
      <lane allow="delivery bicycle pedestrian" id=":1769035032_2_0" index="0" length="6.44" shape="854.86,282.02 852.93,281.56 852.03,280.71 852.17,279.49 853.34,277.88" speed="5.56"/>
   </edge>
   <edge function="internal" id=":1769035032_3">
      <lane allow="delivery bicycle pedestrian" id=":1769035032_3_0" index="0" length="3.67" shape="855.13,274.81 854.15,276.08 853.52,277.01 853.25,277.61 853.34,277.88" speed="13.89"/>
   </edge>
   <edge function="internal" id=":1769035032_4">
      <lane disallow="tram rail_urban rail rail_electric ship" id=":1769035032_4_0" index="0" length="9.74" shape="855.13,274.81 848.75,282.17" speed="22.22"/>
   </edge>
   <edge function="internal" id=":1769035032_5">
      <lane disallow="tram rail_urban rail rail_electric ship" id=":1769035032_5_0" index="0" length="2.53" shape="855.13,274.81 853.71,275.25 852.80,275.06 852.76,274.95" speed="22.22"/>
   </edge>
   <edge function="internal" id=":1769035032_9">
      <lane id=":1769035032_9_0" index="0" length="2.29" shape="852.76,274.95 852.42,274.22 852.56,272.73" speed="22.22"/>
   </edge>
   <edge function="internal" id=":1769035032_6">
      <lane disallow="tram rail_urban rail rail_electric ship" id=":1769035032_6_0" index="0" length="9.44" shape="846.38,279.87 852.56,272.73" speed="22.22"/>
   </edge>
   <edge function="internal" id=":1769035032_7">
      <lane allow="delivery bicycle pedestrian" id=":1769035032_7_0" index="0" length="4.93" shape="846.38,279.87 848.05,278.47 849.77,277.67 850.61,277.57" speed="13.89"/>
   </edge>
   <edge function="internal" id=":1769035032_8">