<?xml version="1.0" encoding="utf-8"?><!-- generated on 10/11/17 17:52:49 by SUMO polyconvert Version 0.25.0
<?xml version="1.0" encoding="UTF-8"?>

<configuration xmlns:xsi="http://www.w3.org/2001/XMLSchema-instance" xsi:noNamespaceSchemaLocation="http://sumo.dlr.de/xsd/polyconvertConfiguration.xsd">

    <input>
        <net-file value="FR_Altstadt_historical_800.net.xml"/>
        <osm-files value="FR_Altstadt_historical_800.osm"/>
        <type-file value="osmPolyconvert.typ.xml"/>
    </input>

    <output>
        <output-file value="FR_Altstadt_historical_800.poly.xml"/>
    </output>

    <projection>
        <proj.utm value="true"/>
    </projection>

    <processing>
        <poi-layer-offset value="5"/>
    </processing>

</configuration>
-->
<additional>
   <location convBoundary="-11.09,-0.30,881.50,867.45" netOffset="-413696.80,-5315890.77" origBoundary="7.843100,47.990600,7.854900,47.998299" projParameter="+proj=utm +zone=32 +ellps=WGS84 +datum=WGS84 +units=m +no_defs"/>
   <poly color="red" fill="1" id="100184472" layer="-1.00" shape="856.03,390.67 857.66,395.28 872.68,390.01 856.03,390.67" type="building"/>
   <poly color="red" fill="1" id="100184474" layer="-1.00" shape="843.49,300.10 849.64,309.56 848.92,309.99 841.36,314.54 834.41,305.06 843.49,300.10" type="building"/>
   <poly color="red" fill="1" id="100184475" layer="-1.00" shape="841.36,314.54 844.26,319.51 851.97,315.06 848.92,309.99 841.36,314.54" type="building"/>
   <poly color="red" fill="1" id="100184476" layer="-1.00" shape="859.85,400.59 865.80,415.34 874.58,394.98 859.85,400.59" type="building"/>
   <poly color="red" fill="1" id="100184479" layer="-1.00" shape="844.26,319.51 845.75,323.52 855.35,319.14 856.97,318.10 859.18,316.69 856.01,312.65 853.88,313.92 851.97,315.06 844.26,319.51" type="building"/>
   <poly color="red" fill="1" id="100184480" layer="-1.00" shape="859.75,302.29 862.12,300.59 866.57,306.28 856.01,312.65 852.95,307.57 859.75,302.29" type="building"/>
   <poly color="red" fill="1" id="100184481" layer="-1.00" shape="852.80,360.63 870.77,357.01 871.83,361.97 853.06,366.56 852.80,360.63" type="building"/>
   <poly color="red" fill="1" id="100184490" layer="-1.00" shape="833.90,291.52 835.83,294.91 839.23,293.75 843.49,300.10 834.41,305.06 823.42,294.96 825.32,294.31 833.90,291.52" type="building"/>
   <poly color="red" fill="1" id="100184494" layer="-1.00" shape="846.40,363.41 846.95,370.61 831.20,367.94 828.20,367.58 829.59,361.23 834.75,361.95 846.40,363.41" type="building"/>
   <poly color="red" fill="1" id="100184495" layer="-1.00" shape="853.64,293.89 845.92,299.25 840.85,292.87 838.60,289.33 846.95,284.96 853.64,293.89" type="building"/>
   <poly color="red" fill="1" id="100184498" layer="-1.00" shape="866.57,306.28 870.40,311.11 859.18,316.69 856.01,312.65 866.57,306.28" type="building"/>
   <poly color="red" fill="1" id="100184502" layer="-1.00" shape="857.66,395.28 859.85,400.59 874.58,394.98 872.68,390.01 857.66,395.28" type="building"/>
   <poly color="red" fill="1" id="100184505" layer="-1.00" shape="851.28,345.82 852.11,353.55 869.30,350.10 867.63,342.27 851.28,345.82" type="building"/>
   <poly color="red" fill="1" id="100184508" layer="-1.00" shape="874.04,372.32 855.03,385.88 853.86,377.44 874.04,372.32" type="building"/>
   <poly color="red" fill="1" id="100184510" layer="-1.00" shape="852.08,399.92 859.72,418.41 841.43,424.18 839.43,424.81 837.02,416.74 831.73,417.59 829.91,408.20 829.02,403.58 835.46,403.45 840.49,401.01 852.08,399.92" type="building"/>
   <poly color="red" fill="1" id="100184514" layer="-1.00" shape="853.06,366.56 853.32,372.08 872.83,366.64 871.83,361.97 853.06,366.56" type="building"/>
   <poly color="red" fill="1" id="100184515" layer="-1.00" shape="870.40,311.11 866.67,325.41 863.79,326.97 856.97,318.10 859.18,316.69 870.40,311.11" type="building"/>
   <poly color="red" fill="1" id="100184516" layer="-1.00" shape="816.86,306.69 817.70,304.66 819.92,300.36 831.41,310.52 837.93,318.71 834.21,321.02 831.22,317.18 827.64,313.68 816.86,306.69" type="building"/>
   <poly color="red" fill="0" id="100184517" layer="-1.00" shape="868.39,338.49 865.78,333.43 869.59,331.91" type="building"/>
   <poly color="red" fill="1" id="100184521" layer="-1.00" shape="849.95,338.71 861.78,335.17 865.78,333.43 868.39,338.49 869.66,341.84 867.63,342.27 851.28,345.82 849.95,338.71" type="building"/>
   <poly color="red" fill="1" id="100184523" layer="-1.00" shape="845.75,323.52 849.10,333.30 859.08,329.49 861.68,328.10 855.35,319.14 845.75,323.52" type="building"/>
   <poly color="red" fill="1" id="100184526" layer="-1.00" shape="851.49,397.59 851.76,398.65 852.08,399.92 840.49,401.01 839.89,399.63 839.70,398.44 851.49,397.59" type="building"/>
   <poly color="red" fill="0" id="100184527" layer="-1.00" shape="856.03,390.67 855.03,385.88" type="building"/>
   <poly color="red" fill="0" id="100184537" layer="-1.00" shape="869.59,331.91 868.16,328.17 866.67,325.41" type="building"/>
   <poly color="red" fill="1" id="100184538" layer="-1.00" shape="853.32,372.08 853.86,377.44 874.04,372.32 872.83,366.64 853.32,372.08" type="building"/>
   <poly color="red" fill="1" id="100184539" layer="-1.00" shape="852.11,353.55 869.30,350.10 870.77,357.01 852.80,360.63 852.11,353.55" type="building"/>
   <poly color="red" fill="1" id="100184543" layer="-1.00" shape="849.18,387.86 851.49,397.59 839.70,398.44 837.30,388.20 849.18,387.86" type="building"/>
   <poly color="red" fill="1" id="100184548" layer="-1.00" shape="849.10,333.30 849.95,338.71 861.78,335.17 860.57,332.25 859.08,329.49 849.10,333.30" type="building"/>
   <poly color="red" fill="1" id="100190366" layer="-1.00" shape="780.45,355.85 783.38,358.40 788.46,361.89 787.36,375.96 772.76,366.47 776.66,360.92 780.45,355.85" type="building"/>
   <poly color="red" fill="1" id="100323601" layer="-1.00" shape="534.68,473.82 535.39,473.22 537.72,476.39 535.77,478.25 532.63,480.47 529.91,477.19 534.68,473.82" type="building"/>
   <poly color="red" fill="1" id="100323602" layer="-1.00" shape="555.09,469.99 547.73,476.69 540.95,469.35 548.61,462.94 555.09,469.99" type="building"/>
   <poly color="red" fill="1" id="100323603" layer="-1.00" shape="622.89,426.39 601.52,430.28 606.38,442.84 627.57,438.75 622.89,426.39" type="building"/>
   <poly color="red" fill="1" id="100323604" layer="-1.00" shape="521.23,487.86 512.95,475.00 528.12,464.12 534.68,473.82 529.91,477.19 532.63,480.47 521.23,487.86" type="building"/>
   <poly color="237,199,199" fill="1" id="100323605" layer="-1.00" shape="663.81,416.19 622.89,426.39 627.57,438.75 629.31,444.11 631.45,443.57 664.76,435.07 668.76,434.04 667.55,429.84 663.81,416.19" type="amenity"/>
   <poly color="red" fill="1" id="100323605#1" layer="-1.00" shape="663.81,416.19 622.89,426.39 627.57,438.75 629.31,444.11 631.45,443.57 664.76,435.07 668.76,434.04 667.55,429.84 663.81,416.19" type="building"/>
   <poly color="red" fill="1" id="100323606" layer="-1.00" shape="610.52,454.15 596.10,460.26 593.25,451.83 607.84,446.84 610.52,454.15" type="building"/>
   <poly color="red" fill="1" id="100323608" layer="-1.00" shape="670.02,414.25 663.81,416.19 667.55,429.84 672.12,428.69 675.22,427.92 674.25,426.58 670.02,414.25" type="building"/>
   <poly color="red" fill="1" id="100323609" layer="-1.00" shape="525.41,494.41 521.23,487.86 532.63,480.47 535.77,478.25 540.29,484.48 531.20,490.54 525.41,494.41" type="building"/>
   <poly color="red" fill="1" id="100323610" layer="-1.00" shape="586.29,433.42 572.31,437.04 578.16,449.02 585.73,447.04 591.72,445.47 586.29,433.42" type="building"/>
   <poly color="red" fill="1" id="100323611" layer="-1.00" shape="531.20,490.54 540.29,484.48 543.29,484.12 548.35,482.32 553.94,489.27 544.64,493.42 536.32,498.56 531.20,490.54" type="building"/>
   <poly color="red" fill="1" id="100323613" layer="-1.00" shape="555.09,469.99 568.45,483.65 578.05,478.94 570.72,465.19 568.02,460.11 569.21,460.09 577.82,459.97 581.05,459.92 583.41,464.06 590.85,460.95 592.54,460.25 592.99,461.31 597.11,470.10 628.94,456.35 637.03,474.95 603.02,490.85 596.25,494.09 593.07,498.96 591.52,496.95 588.75,497.92 585.44,500.54 586.48,507.43 583.40,508.11 564.81,519.56 560.72,513.75 563.87,511.29 561.25,508.69 573.40,501.81 557.33,486.03 553.94,489.27 548.35,482.32 551.34,479.98 547.73,476.69 555.09,469.99" type="building"/>
   <poly color="red" fill="1" id="100323614" layer="-1.00" shape="559.19,523.13 550.04,529.74 546.36,532.39 539.19,521.85 552.79,514.00 555.03,517.47 559.19,523.13" type="building"/>
   <poly color="red" fill="1" id="100323615" layer="-1.00" shape="535.77,478.25 537.72,476.39 543.29,484.12 540.29,484.48 535.77,478.25" type="building"/>
   <poly color="red" fill="1" id="100323616" layer="-1.00" shape="539.19,521.85 531.74,511.54 521.95,497.10 525.41,494.41 531.20,490.54 536.32,498.56 544.64,493.42 550.03,502.09 546.00,504.90 550.10,509.93 552.79,514.00 539.19,521.85" type="building"/>
   <poly color="red" fill="1" id="100323616#1" layer="-1.00" shape="539.19,521.85 531.74,511.54 521.95,497.10 525.41,494.41 531.20,490.54 536.32,498.56 544.64,493.42 550.03,502.09 546.00,504.90 550.10,509.93 552.79,514.00 539.19,521.85" type="building"/>
   <poly color="red" fill="1" id="100323617" layer="-1.00" shape="561.08,456.67 564.73,454.10 567.05,457.71 563.80,459.43 561.08,456.67" type="building"/>
   <poly color="red" fill="1" id="100323618" layer="-1.00" shape="596.10,460.26 592.99,461.31 592.54,460.25 590.85,460.95 585.73,447.04 591.72,445.47 596.88,444.55 606.38,442.84 607.84,446.84 593.25,451.83 596.10,460.26" type="building"/>
   <poly color="red" fill="1" id="100323620" layer="-1.00" shape="550.10,509.93 558.58,504.53 561.25,508.69 573.40,501.81 557.33,486.03 553.94,489.27 544.64,493.42 550.03,502.09 546.00,504.90 550.10,509.93" type="building"/>
   <poly color="red" fill="1" id="100323622" layer="-1.00" shape="548.61,462.94 540.95,469.35 535.39,473.22 534.68,473.82 528.12,464.12 525.20,460.26 538.37,450.92 541.30,454.37 547.43,461.55 548.61,462.94" type="building"/>
   <poly color="red" fill="1" id="100323623" layer="-1.00" shape="566.00,453.32 564.73,454.10 561.08,456.67 551.65,445.37 558.51,442.07 566.00,453.32" type="building"/>
   <poly color="red" fill="1" id="100323624" layer="-1.00" shape="564.81,519.56 559.19,523.13 555.03,517.47 560.72,513.75 564.81,519.56" type="building"/>
   <poly color="red" fill="1" id="100323625" layer="-1.00" shape="578.16,449.02 571.60,451.03 566.00,453.32 558.51,442.07 572.31,437.04 578.16,449.02" type="building"/>
   <poly color="red" fill="1" id="100323626" layer="-1.00" shape="606.38,442.84 607.84,446.84 610.52,454.15 626.19,449.74 630.89,448.00 629.31,444.11 627.57,438.75 606.38,442.84" type="building"/>
   <poly color="red" fill="1" id="100323627" layer="-1.00" shape="684.74,408.98 689.90,425.63 684.17,427.22 682.38,423.69 674.25,426.58 670.02,414.25 684.74,408.98" type="building"/>
   <poly color="red" fill="1" id="100323628" layer="-1.00" shape="564.73,454.10 567.05,457.71 569.21,460.09 577.82,459.97 571.60,451.03 566.00,453.32 564.73,454.10" type="building"/>
   <poly color="red" fill="1" id="100323629" layer="-1.00" shape="561.08,456.67 563.80,459.43 565.53,461.51 568.02,460.11 570.72,465.19 563.87,467.76 556.38,460.21 553.78,461.97 544.73,450.19 551.65,445.37 561.08,456.67" type="building"/>
   <poly color="red" fill="1" id="100323630" layer="-1.00" shape="596.88,444.55 606.38,442.84 601.52,430.28 592.14,432.19 596.88,444.55" type="building"/>
   <poly color="red" fill="1" id="100323632" layer="-1.00" shape="689.90,425.63 694.13,437.25 687.04,439.55 686.44,438.33 682.21,429.70 681.27,428.04 684.17,427.22 689.90,425.63" type="building"/>
   <poly color="red" fill="1" id="100336912" layer="-1.00" shape="770.34,514.74 756.22,516.92 758.26,531.81 773.14,532.15 771.62,521.86 770.34,514.74" type="building"/>
   <poly color="red" fill="1" id="100336925" layer="-1.00" shape="685.62,475.69 689.45,474.40 694.19,472.37 690.82,461.67 682.05,464.63 685.62,475.69" type="building"/>
   <poly color="red" fill="1" id="100336942" layer="-1.00" shape="668.35,510.22 662.30,513.16 658.02,501.47 664.73,498.96 668.35,510.22" type="building"/>
   <poly color="red" fill="1" id="100336954" layer="-1.00" shape="666.42,470.24 650.33,476.78 651.72,480.47 656.01,495.44 663.26,493.73 662.49,489.90 661.48,484.87 670.57,482.51 666.42,470.24" type="building"/>
   <poly color="red" fill="1" id="100336961" layer="-1.00" shape="609.19,514.06 623.73,503.99 618.22,494.12 602.41,504.11 609.19,514.06" type="building"/>
   <poly color="red" fill="1" id="100336980" layer="-1.00" shape="629.30,489.56 651.72,480.47 656.01,495.44 656.27,496.34 652.09,499.20 649.13,489.30 631.88,496.65 629.30,489.56" type="building"/>
   <poly color="red" fill="1" id="100336981" layer="-1.00" shape="682.05,464.63 670.93,468.54 674.45,479.08 676.13,478.52 679.20,477.61 681.70,477.12 682.58,481.63 683.15,483.35 687.64,481.69 685.62,475.69 682.05,464.63" type="building"/>
   <poly color="red" fill="1" id="100336987" layer="-1.00" shape="700.29,498.23 689.39,502.14 683.57,484.65 683.15,483.35 687.64,481.69 691.36,480.43 695.12,479.50 700.29,498.23" type="building"/>
   <poly color="red" fill="1" id="100336992" layer="-1.00" shape="678.26,506.36 672.33,508.70 668.66,496.94 671.63,496.06 674.44,495.12 678.26,506.36" type="building"/>
   <poly color="red" fill="1" id="100336992#1" layer="-1.00" shape="678.26,506.36 672.33,508.70 668.66,496.94 671.63,496.06 674.44,495.12 678.26,506.36" type="building"/>
   <poly color="red" fill="1" id="100336996" layer="-1.00" shape="662.30,513.16 658.02,501.47 656.27,496.34 652.09,499.20 636.86,509.21 644.40,525.24 662.30,513.16" type="building"/>
   <poly color="red" fill="1" id="100337010" layer="-1.00" shape="689.39,502.14 678.26,506.36 674.44,495.12 672.91,489.92 672.50,488.54 677.08,487.02 683.57,484.65 689.39,502.14" type="building"/>
   <poly color="red" fill="1" id="100337056" layer="-1.00" shape="670.93,468.54 666.42,470.24 670.57,482.51 671.19,484.60 675.76,483.09 674.45,479.08 670.93,468.54" type="building"/>
   <poly color="red" fill="1" id="100337058" layer="-1.00" shape="618.22,494.12 629.30,489.56 631.88,496.65 632.68,499.05 634.29,504.04 629.44,506.58 627.33,502.36 623.73,503.99 618.22,494.12" type="building"/>
   <poly color="red" fill="1" id="100337088" layer="-1.00" shape="804.78,495.96 801.49,476.73 788.00,479.43 791.68,494.29 790.14,494.76 791.06,499.35 804.78,495.96" type="building"/>
   <poly color="red" fill="1" id="100424612" layer="-1.00" shape="669.03,555.97 669.02,550.12 674.10,545.47 679.35,545.48 684.63,551.36 684.67,556.85 678.72,561.34 673.70,561.28 669.03,555.97" type="building"/>
   <poly color="207,245,201" fill="1" id="100424612#1" layer="-2.00" shape="669.03,555.97 669.02,550.12 674.10,545.47 679.35,545.48 684.63,551.36 684.67,556.85 678.72,561.34 673.70,561.28 669.03,555.97" type="tourism"/>
   <poly color="237,199,199" fill="1" id="100669477" layer="-1.00" shape="834.27,514.99 836.92,514.23 838.31,519.08 842.72,517.82 841.83,514.69 857.67,510.17 853.64,496.13 853.34,495.10 830.44,501.63 834.27,514.99" type="amenity"/>
   <poly color="red" fill="1" id="100669477#1" layer="-1.00" shape="834.27,514.99 836.92,514.23 838.31,519.08 842.72,517.82 841.83,514.69 857.67,510.17 853.64,496.13 853.34,495.10 830.44,501.63 834.27,514.99" type="building"/>
   <poly color="red" fill="1" id="100669488" layer="-1.00" shape="804.29,438.20 821.53,433.63 824.34,449.34 806.64,453.74 804.29,438.20" type="building"/>
   <poly color="red" fill="1" id="100669491" layer="-1.00" shape="806.64,453.74 808.72,469.28 827.62,467.08 824.87,451.37 824.34,449.34 806.64,453.74" type="building"/>
   <poly color="red" fill="1" id="100714190" layer="-1.00" shape="826.61,658.90 826.29,674.77 828.66,676.70 834.29,677.36 852.49,676.04 850.39,665.88 839.05,666.38 838.60,658.92 826.61,658.90" type="building"/>
   <poly color="red" fill="1" id="100714200" layer="-1.00" shape="829.24,608.07 828.42,623.85 845.24,622.58 854.06,620.85 853.30,616.86 846.27,618.00 846.08,615.81 844.97,615.86 843.94,606.71 841.33,607.39 829.24,608.07" type="building"/>
   <poly color="red" fill="1" id="100714221" layer="-1.00" shape="825.14,563.50 826.87,574.28 838.22,572.67 837.30,566.18 838.82,565.97 838.53,561.63 825.14,563.50" type="building"/>
   <poly color="red" fill="1" id="100714245" layer="-1.00" shape="823.48,551.64 836.87,549.78 838.53,561.63 825.14,563.50 823.48,551.64" type="building"/>
   <poly color="red" fill="1" id="100714275" layer="-1.00" shape="829.40,597.26 829.24,608.07 841.33,607.39 841.21,605.27 842.24,605.21 841.97,600.59 841.04,600.65 840.53,596.11 829.40,597.26" type="building"/>
   <poly color="red" fill="1" id="100714276" layer="-1.00" shape="826.87,574.28 828.52,584.53 839.65,582.69 839.33,580.77 840.73,580.54 839.96,575.97 838.77,576.17 838.22,572.67 826.87,574.28" type="building"/>
   <poly color="red" fill="1" id="100714306" layer="-1.00" shape="827.08,649.76 826.61,658.90 838.60,658.92 838.60,654.48 842.27,654.51 842.21,650.41 827.08,649.76" type="building"/>
   <poly color="red" fill="1" id="100714383" layer="-1.00" shape="827.49,639.68 827.08,649.76 842.21,650.41 842.58,639.23 839.45,639.50 827.49,639.68" type="building"/>
   <poly color="red" fill="1" id="100714394" layer="-1.00" shape="828.52,584.53 829.40,597.26 840.53,596.11 841.13,595.94 840.30,590.69 841.74,590.55 841.32,586.11 839.96,586.24 839.65,582.69 828.52,584.53" type="building"/>
   <poly color="red" fill="1" id="100714395" layer="-1.00" shape="828.18,626.69 840.12,625.86 840.05,631.59 839.45,639.50 827.49,639.68 828.18,626.69" type="building"/>
   <poly color="red" fill="1" id="100887668" layer="-1.00" shape="597.89,530.77 587.85,537.80 583.76,532.09 593.45,525.23 597.89,530.77" type="building"/>
   <poly color="red" fill="1" id="100887672" layer="-1.00" shape="576.78,549.82 571.72,543.34 560.34,552.29 565.94,558.72 576.78,549.82" type="building"/>
   <poly color="red" fill="1" id="100887676" layer="-1.00" shape="619.67,536.70 610.27,526.03 598.84,538.02 602.87,544.78 608.51,542.24 611.13,540.07 619.67,536.70" type="building"/>
   <poly color="red" fill="1" id="100887677" layer="-1.00" shape="593.45,525.23 597.89,530.77 606.30,521.70 595.70,508.03 586.26,514.50 593.45,525.23" type="building"/>
   <poly color="red" fill="1" id="100887681" layer="-1.00" shape="571.41,564.98 576.42,570.74 586.87,561.83 582.05,555.82 571.41,564.98" type="building"/>
   <poly color="red" fill="1" id="100887714" layer="-1.00" shape="657.82,655.02 659.84,653.88 661.25,653.82 662.66,655.43 662.40,658.00 664.62,660.73 680.15,650.95 679.65,649.47 680.00,648.76 680.94,648.03 682.02,648.39 682.86,649.24 692.09,643.43 685.74,631.47 654.99,650.60 657.82,655.02" type="building"/>
   <poly color="red" fill="1" id="100887723" layer="-1.00" shape="623.88,579.36 601.04,595.11 597.05,597.86 619.60,628.14 633.55,646.64 636.91,644.75 673.81,623.91 659.33,601.15 652.09,590.03 642.16,596.02 634.54,600.98 628.19,592.31 631.11,590.10 623.88,579.36" type="building"/>
   <poly color="red" fill="1" id="100887723#1" layer="-1.00" shape="623.88,579.36 601.04,595.11 597.05,597.86 619.60,628.14 633.55,646.64 636.91,644.75 673.81,623.91 659.33,601.15 652.09,590.03 642.16,596.02 634.54,600.98 628.19,592.31 631.11,590.10 623.88,579.36" type="building"/>
   <poly color="red" fill="1" id="100887727" layer="-1.00" shape="586.87,561.83 591.36,558.14 586.87,552.09 582.05,555.82 586.87,561.83" type="building"/>
   <poly color="red" fill="1" id="100887741" layer="-1.00" shape="595.97,563.62 598.64,561.68 599.08,562.08 596.34,564.07 595.97,563.62" type="building"/>
   <poly color="red" fill="1" id="100887760" layer="-1.00" shape="781.45,734.43 777.05,737.03 776.28,735.41 773.00,736.82 769.04,728.65 767.93,726.36 774.87,722.81 776.62,725.86 781.45,734.43" type="building"/>
   <poly color="red" fill="1" id="100887760#1" layer="-1.00" shape="781.45,734.43 777.05,737.03 776.28,735.41 773.00,736.82 769.04,728.65 767.93,726.36 774.87,722.81 776.62,725.86 781.45,734.43" type="building"/>
   <poly color="red" fill="1" id="100887776" layer="-1.00" shape="586.87,552.09 582.00,546.03 576.78,549.82 582.05,555.82 586.87,552.09" type="building"/>
   <poly color="red" fill="1" id="100887790" layer="-1.00" shape="615.10,555.25 617.39,559.15 614.80,560.81 620.00,568.55 633.33,559.38 627.31,549.45 615.10,555.25" type="building"/>
   <poly color="red" fill="1" id="100887795" layer="-1.00" shape="571.04,525.68 555.09,536.81 550.03,540.20 560.34,552.29 571.72,543.34 579.30,537.80 571.04,525.68" type="building"/>
   <poly color="red" fill="1" id="100887801" layer="-1.00" shape="638.95,569.19 652.09,590.03 642.16,596.02 638.79,591.33 634.00,594.49 631.11,590.10 623.88,579.36 638.95,569.19" type="building"/>
   <poly color="red" fill="1" id="100887801#1" layer="-1.00" shape="638.95,569.19 652.09,590.03 642.16,596.02 638.79,591.33 634.00,594.49 631.11,590.10 623.88,579.36 638.95,569.19" type="building"/>
   <poly color="red" fill="1" id="100887804" layer="-1.00" shape="581.03,576.76 585.73,582.87 595.28,575.14 594.39,574.08 603.12,568.28 599.08,562.08 596.34,564.07 581.03,576.76" type="building"/>
   <poly color="red" fill="1" id="101163687" layer="-1.00" shape="28.93,365.55 16.33,367.50 14.68,355.95 15.92,355.78 27.25,354.16 28.93,365.55" type="building"/>
   <poly color="red" fill="1" id="101163689" layer="-1.00" shape="-6.86,302.94 1.65,289.65 2.12,289.57 3.31,297.29 5.06,297.03 5.54,300.69 -6.86,302.94" type="building"/>
   <poly color="red" fill="1" id="101163690" layer="-1.00" shape="98.74,354.72 84.46,356.87 82.72,344.83 84.90,344.52 84.69,343.04 93.69,341.75 93.32,339.18 92.41,339.31 92.08,336.34 89.38,335.31 88.64,331.10 92.03,328.38 91.41,323.23 93.91,322.91 96.27,338.85 98.74,354.72" type="building"/>
   <poly color="red" fill="1" id="101163692" layer="-1.00" shape="16.33,367.50 7.92,368.83 4.92,367.39 2.12,351.95 12.34,350.14 12.46,351.73 15.42,351.28 15.92,355.78 14.68,355.95 16.33,367.50" type="building"/>
   <poly color="red" fill="1" id="101163693" layer="-1.00" shape="112.07,352.52 98.74,354.72 96.27,338.85 99.15,338.41 99.75,342.31 103.98,341.66 103.84,340.77 107.58,340.20 107.73,341.15 110.31,340.74 112.07,352.52" type="building"/>
   <poly color="red" fill="1" id="101163694" layer="-1.00" shape="96.27,338.85 99.15,338.41 101.90,338.01 99.36,320.83 93.73,321.66 93.91,322.91 96.27,338.85" type="building"/>
   <poly color="red" fill="1" id="101163695" layer="-1.00" shape="-0.01,340.04 -2.13,328.60 8.68,326.78 9.83,326.59 11.76,338.02 10.98,338.10 -0.01,340.04" type="building"/>
   <poly color="red" fill="1" id="101163696" layer="-1.00" shape="-4.07,317.37 -6.86,302.94 5.54,300.69 5.95,303.58 6.76,307.85 7.82,307.66 8.63,312.21 7.63,312.39 8.14,315.26 6.90,315.51 -4.07,317.37" type="building"/>
   <poly color="red" fill="1" id="101163699" layer="-1.00" shape="-2.13,328.60 -4.07,317.37 6.90,315.51 7.70,320.25 9.01,320.03 9.64,323.78 8.21,324.02 8.68,326.78 -2.13,328.60" type="building"/>
   <poly color="red" fill="1" id="101163700" layer="-1.00" shape="2.12,351.95 -0.01,340.04 10.98,338.10 11.46,340.78 13.06,340.50 13.78,344.52 12.27,344.78 13.20,349.98 12.34,350.14 2.12,351.95" type="building"/>
   <poly color="red" fill="1" id="101163701" layer="-1.00" shape="4.33,280.20 2.34,283.93 2.75,283.75 2.60,286.78 1.45,286.87 1.65,289.65 -4.80,274.75 4.33,280.20" type="building"/>
   <poly color="red" fill="1" id="101163702" layer="-1.00" shape="84.46,356.87 69.89,359.29 68.11,346.95 72.82,346.26 72.58,344.63 78.42,343.79 78.64,345.31 82.72,344.83 84.46,356.87" type="building"/>
   <poly color="red" fill="1" id="101163703" layer="-1.00" shape="69.89,359.29 55.90,361.29 54.10,349.22 60.06,348.33 59.82,346.75 63.94,346.13 64.15,347.56 68.11,346.95 69.89,359.29" type="building"/>
   <poly color="red" fill="1" id="101163704" layer="-1.00" shape="112.07,352.52 110.31,340.74 110.18,339.82 114.81,339.14 114.64,338.02 119.57,337.29 119.76,338.56 124.49,337.85 126.35,350.41 112.07,352.52" type="building"/>
   <poly color="red" fill="1" id="101163705" layer="-1.00" shape="42.06,350.97 43.79,363.35 55.90,361.29 54.10,349.22 50.83,349.73 50.51,347.47 46.12,348.08 46.44,350.36 42.06,350.97" type="building"/>
   <poly color="red" fill="1" id="101165185" layer="-1.00" shape="0.80,264.31 2.03,262.16 1.46,261.84 4.04,257.32 4.33,257.48 5.92,254.68 15.56,260.13 13.83,263.17 16.24,264.54 12.58,270.97 10.18,269.62 0.80,264.31" type="building"/>
   <poly color="red" fill="1" id="101165187" layer="-1.00" shape="79.78,328.66 78.33,319.48 77.11,319.68 76.58,316.26 77.63,316.10 76.90,310.71 83.86,310.77 86.32,327.72 79.78,328.66" type="building"/>
   <poly color="red" fill="1" id="101165192" layer="-1.00" shape="5.92,254.68 12.18,243.68 26.12,251.56 21.71,259.31 17.42,256.88 15.56,260.13 5.92,254.68" type="building"/>
   <poly color="red" fill="1" id="101165193" layer="-1.00" shape="19.66,285.29 18.19,287.85 16.43,286.86 9.67,283.05 14.68,274.23 23.20,279.05 19.66,285.29" type="building"/>
   <poly color="red" fill="1" id="101165195" layer="-1.00" shape="64.19,318.89 65.79,330.94 66.86,340.70 64.31,341.00 63.12,331.28 60.73,331.57 59.26,319.49 64.19,318.89" type="building"/>
   <poly color="red" fill="1" id="101165199" layer="-1.00" shape="62.40,309.89 76.90,310.71 83.86,310.77 92.23,311.08 105.51,311.39 111.76,311.07 111.90,303.33 74.43,302.20 64.10,301.92 62.75,301.86 62.82,302.65 62.40,309.89" type="building"/>
   <poly color="red" fill="1" id="101186031" layer="-1.00" shape="52.05,219.19 46.61,232.90 49.96,234.16 48.49,237.18 57.79,241.67 65.78,225.21 52.05,219.19" type="building"/>
   <poly color="237,199,199" fill="1" id="101186032" layer="-1.00" shape="51.11,287.52 55.05,277.54 55.85,277.85 56.96,275.03 56.10,274.69 60.25,264.17 79.18,271.60 76.34,278.80 75.24,281.56 74.71,281.36 73.50,284.46 73.94,284.63 72.61,287.99 69.89,294.88 51.11,287.52" type="amenity"/>
   <poly color="red" fill="1" id="101186032#1" layer="-1.00" shape="51.11,287.52 55.05,277.54 55.85,277.85 56.96,275.03 56.10,274.69 60.25,264.17 79.18,271.60 76.34,278.80 75.24,281.56 74.71,281.36 73.50,284.46 73.94,284.63 72.61,287.99 69.89,294.88 51.11,287.52" type="building"/>
   <poly color="red" fill="1" id="101186034" layer="-1.00" shape="130.30,295.38 130.69,287.41 128.68,287.36 128.64,284.62 123.41,284.76 123.37,286.91 121.36,286.74 121.25,283.93 122.19,283.92 122.20,280.50 120.05,280.53 120.03,278.66 121.18,278.62 121.15,275.99 102.78,275.86 102.75,284.91 115.70,288.99 115.45,292.83 130.30,295.38" type="building"/>
   <poly color="237,199,199" fill="1" id="101186035" layer="-1.00" shape="297.49,218.34 294.34,212.18 294.23,210.63 291.96,203.98 296.37,203.01 303.43,202.58 308.05,216.57 303.28,218.34 302.54,216.48 297.49,218.34" type="amenity"/>
   <poly color="red" fill="1" id="101186035#1" layer="-1.00" shape="297.49,218.34 294.34,212.18 294.23,210.63 291.96,203.98 296.37,203.01 303.43,202.58 308.05,216.57 303.28,218.34 302.54,216.48 297.49,218.34" type="building"/>
   <poly color="red" fill="1" id="101186037" layer="-1.00" shape="264.03,214.81 294.34,212.18 294.23,210.63 291.96,203.98 281.10,204.95 281.27,206.87 275.00,207.43 274.83,205.52 263.02,206.58 264.03,214.81" type="building"/>
   <poly color="red" fill="1" id="101186038" layer="-1.00" shape="305.10,240.57 315.44,236.88 308.05,216.57 303.28,218.34 305.16,224.63 307.20,223.84 308.43,227.29 305.07,228.55 304.75,227.53 300.97,228.92 305.10,240.57" type="building"/>
   <poly color="red" fill="1" id="101186040" layer="-1.00" shape="57.79,241.67 52.46,253.26 32.21,242.93 37.55,231.91 48.49,237.18 57.79,241.67" type="building"/>
   <poly color="red" fill="1" id="101352086" layer="-1.00" shape="146.21,254.10 132.62,254.02 132.59,258.55 130.07,258.53 130.08,256.58 125.29,256.55 125.28,258.07 125.24,263.94 125.25,264.59 132.25,264.63 132.23,267.69 137.76,267.72 146.13,267.77 146.21,254.10" type="building"/>
   <poly color="red" fill="1" id="101352088" layer="-1.00" shape="89.51,236.60 93.47,236.59 95.93,236.58 103.89,236.55 103.84,222.61 80.14,222.68 80.18,236.63 89.51,236.60" type="building"/>
   <poly color="red" fill="1" id="101352091" layer="-1.00" shape="131.07,232.20 131.07,227.72 131.09,221.14 131.10,216.08 146.20,216.11 146.16,232.23 131.07,232.20" type="building"/>
   <poly color="red" fill="1" id="101352092" layer="-1.00" shape="71.10,250.75 84.03,250.70 83.99,241.52 89.52,241.50 89.51,236.60 80.18,236.63 73.78,236.65 71.05,236.66 71.10,250.75" type="building"/>
   <poly color="red" fill="1" id="101577694" layer="-1.00" shape="57.15,617.35 53.59,606.21 15.38,618.63 19.34,630.55 20.03,632.88 37.11,626.90 52.77,621.86 58.35,619.97 57.15,617.35" type="building"/>
   <poly color="red" fill="1" id="101577702" layer="-1.00" shape="54.87,716.09 46.57,690.98 36.54,694.28 38.24,699.43 44.84,719.39 54.87,716.09" type="building"/>
   <poly color="red" fill="1" id="101577718" layer="-1.00" shape="56.54,682.84 55.34,683.22 37.11,626.90 52.77,621.86 67.80,668.32 82.68,714.30 68.22,718.95 56.54,682.84" type="building"/>
   <poly color="red" fill="1" id="101577719" layer="-1.00" shape="13.62,653.27 25.88,691.50 37.51,687.29 34.95,679.72 32.79,673.10 25.10,649.45 17.31,652.04 13.62,653.27" type="building"/>
   <poly color="207,245,201" fill="1" id="101577719#1" layer="-2.00" shape="13.62,653.27 25.88,691.50 37.51,687.29 34.95,679.72 32.79,673.10 25.10,649.45 17.31,652.04 13.62,653.27" type="leisure"/>
   <poly color="79,230,125" fill="1" id="101577719#2" layer="-2.00" shape="13.62,653.27 25.88,691.50 37.51,687.29 34.95,679.72 32.79,673.10 25.10,649.45 17.31,652.04 13.62,653.27" type="sport"/>
   <poly color="red" fill="1" id="101695645" layer="-1.00" shape="7.20,132.82 4.56,127.41 13.02,123.29 15.67,128.69 7.20,132.82" type="building"/>
   <poly color="red" fill="1" id="101695647" layer="-1.00" shape="17.24,235.71 21.25,227.44 24.87,220.35 35.28,225.79 33.31,229.86 37.55,231.91 32.21,242.93 17.24,235.71" type="building"/>