<?xml version="1.0" encoding="utf-8"?><!-- generated on 10/11/17 17:52:41 by SUMO netconvert Version 0.25.0
<?xml version="1.0" encoding="UTF-8"?>

<configuration xmlns:xsi="http://www.w3.org/2001/XMLSchema-instance" xsi:noNamespaceSchemaLocation="http://sumo.dlr.de/xsd/netconvertConfiguration.xsd">

    <input>
        <type-files value="osmNetconvert.typ.xml"/>
        <osm-files value="FR_Altstadt_historical_800.osm"/>
    </input>

    <output>
        <output-file value="FR_Altstadt_historical_800.net.xml"/>
    </output>

    <projection>
        <proj.utm value="true"/>
    </projection>

    <edge_removal>
        <remove-edges.by-type value="highway.track,highway.unsurfaced,highway.raceway,highway.bridleway,highway.path,highway.footway,highway.pedestrian,highway.cycleway,highway.step,highway.steps,highway.stairs,highway.bus_guideway,highway.ford,railway.rail,railway.tram,railway.light_rail,railway.subway,railway.preserved,railway.narrow_gauge,railway.monorail,railway.funicular"/>
    </edge_removal>

</configuration>
-->
<net version="0.25">
   <location convBoundary="0.00,0.00,877.60,857.89" netOffset="-413696.80,-5315890.77" origBoundary="7.843161,47.990600,7.854894,47.998298" projParameter="+proj=utm +zone=32 +ellps=WGS84 +datum=WGS84 +units=m +no_defs"/>
   <type allow="pedestrian" id="highway.bridleway" numLanes="1" oneway="1" priority="1" speed="2.78" width="2.00"/>
   <type allow="bus" id="highway.bus_guideway" numLanes="1" oneway="1" priority="1" speed="8.33"/>
   <type allow="bicycle" id="highway.cycleway" numLanes="1" oneway="0" priority="1" speed="5.56" width="1.00"/>
   <type allow="pedestrian" id="highway.footway" numLanes="1" oneway="1" priority="1" speed="8.33" width="2.00"/>
   <type allow="army" id="highway.ford" numLanes="1" oneway="0" priority="1" speed="2.78"/>
   <type disallow="tram rail_urban rail rail_electric ship" id="highway.living_street" numLanes="1" oneway="0" priority="3" speed="2.78"/>
   <type allow="private emergency authority army vip passenger hov taxi bus coach delivery truck trailer motorcycle evehicle custom1 custom2" id="highway.motorway" numLanes="2" oneway="1" priority="13" speed="44.44"/>
   <type allow="private emergency authority army vip passenger hov taxi bus coach delivery truck trailer motorcycle evehicle custom1 custom2" id="highway.motorway_link" numLanes="1" oneway="1" priority="12" speed="22.22"/>
   <type allow="bicycle pedestrian" id="highway.path" numLanes="1" oneway="1" priority="1" speed="2.78" width="2.00"/>
   <type allow="pedestrian" id="highway.pedestrian" numLanes="1" oneway="1" priority="1" speed="8.33" width="2.00"/>
   <type allow="tram pedestrian" id="highway.pedestrian|railway.tram" numLanes="1" oneway="0" priority="15" speed="13.89" width="3.20"/>
   <type disallow="tram rail_urban rail rail_electric ship" id="highway.primary" numLanes="2" oneway="0" priority="9" speed="27.78"/>
   <type disallow="tram rail_urban rail rail_electric ship" id="highway.primary_link" numLanes="1" oneway="0" priority="8" speed="22.22"/>
   <type allow="vip" id="highway.raceway" numLanes="2" oneway="0" priority="14" speed="83.33"/>
   <type disallow="tram rail_urban rail rail_electric ship" id="highway.residential" numLanes="1" oneway="0" priority="4" speed="13.89"/>
   <type disallow="tram rail_urban rail rail_electric ship" id="highway.secondary" numLanes="2" oneway="0" priority="7" speed="27.78"/>
   <type disallow="tram rail_urban rail rail_electric ship" id="highway.secondary_link" numLanes="1" oneway="0" priority="6" speed="22.22"/>
   <type allow="delivery bicycle pedestrian" id="highway.service" numLanes="1" oneway="0" priority="2" speed="5.56"/>
   <type disallow="tram rail_urban rail rail_electric ship" id="highway.services" numLanes="1" oneway="0" priority="1" speed="8.33"/>
   <type allow="delivery tram bicycle pedestrian" id="highway.service|railway.tram" numLanes="1" oneway="0" priority="15" speed="13.89"/>
   <type allow="pedestrian" id="highway.stairs" numLanes="1" oneway="1" priority="1" speed="1.39" width="2.00"/>
   <type allow="pedestrian" id="highway.step" numLanes="1" oneway="1" priority="1" speed="1.39" width="2.00"/>
   <type allow="pedestrian" id="highway.steps" numLanes="1" oneway="1" priority="1" speed="1.39" width="2.00"/>
   <type disallow="tram rail_urban rail rail_electric ship" id="highway.tertiary" numLanes="1" oneway="0" priority="6" speed="22.22"/>
   <type disallow="tram rail_urban rail rail_electric ship" id="highway.tertiary_link" numLanes="1" oneway="0" priority="5" speed="22.22"/>
   <type disallow="tram rail_urban rail rail_electric ship" id="highway.track" numLanes="1" oneway="0" priority="1" speed="5.56"/>
   <type disallow="tram rail_urban rail rail_electric bicycle pedestrian ship" id="highway.trunk" numLanes="2" oneway="0" priority="11" speed="27.78"/>
   <type disallow="tram rail_urban rail rail_electric bicycle pedestrian ship" id="highway.trunk_link" numLanes="1" oneway="0" priority="10" speed="22.22"/>
   <type disallow="tram rail_urban rail rail_electric ship" id="highway.unclassified" numLanes="1" oneway="0" priority="5" speed="13.89"/>
   <type disallow="tram rail_urban rail rail_electric ship" id="highway.unsurfaced" numLanes="1" oneway="0" priority="1" speed="8.33"/>
   <type allow="rail_urban" id="railway.light_rail" numLanes="1" oneway="1" priority="15" speed="27.78"/>
   <type allow="rail" id="railway.preserved" numLanes="1" oneway="1" priority="15" speed="27.78"/>
   <type allow="rail rail_electric" id="railway.rail" numLanes="1" oneway="1" priority="15" speed="83.33"/>
   <type allow="rail_urban" id="railway.subway" numLanes="1" oneway="1" priority="15" speed="27.78"/>
   <type allow="tram" id="railway.tram" numLanes="1" oneway="1" priority="15" speed="13.89"/>
   <edge function="internal" id=":1050251667_0">
      <lane allow="delivery bicycle pedestrian" id=":1050251667_0_0" index="0" length="1.47" shape="317.81,213.12 318.16,213.27 318.45,213.48 318.68,213.75 318.84,214.09" speed="5.56"/>
   </edge>
   <edge function="internal" id=":1128422172_0">
      <lane disallow="tram rail_urban rail rail_electric ship" id=":1128422172_0_0" index="0" length="0.25" shape="318.63,168.10 318.39,168.14" speed="8.33"/>
   </edge>
   <edge function="internal" id=":1130457572_0">
      <lane allow="delivery bicycle pedestrian" id=":1130457572_0_0" index="0" length="5.71" shape="321.00,123.44 319.63,122.35 318.31,121.72 317.05,121.54 315.85,121.81" speed="5.56"/>
   </edge>
   <edge function="internal" id=":1130457572_1">
      <lane allow="delivery bicycle pedestrian" id=":1130457572_1_0" index="0" length="10.56" shape="321.00,123.44 319.17,121.17 318.54,118.89 319.10,116.59 320.87,114.28" speed="5.56"/>
   </edge>
   <edge function="internal" id=":1130457572_2">
      <lane allow="delivery bicycle pedestrian" id=":1130457572_2_0" index="0" length="4.82" shape="321.00,123.44 320.66,121.99 320.92,121.10 321.78,120.78 323.25,121.02" speed="5.56"/>
   </edge>
   <edge function="internal" id=":1130457572_3">
      <lane allow="delivery bicycle pedestrian" id=":1130457572_3_0" index="0" length="5.06" shape="323.18,116.63 322.34,117.74 322.07,118.84 322.37,119.93 323.25,121.02" speed="5.56"/>
   </edge>
   <edge function="internal" id=":1130457572_4">
      <lane allow="delivery bicycle pedestrian" id=":1130457572_4_0" index="0" length="8.98" shape="323.18,116.63 315.85,121.81" speed="5.56"/>
   </edge>
   <edge function="internal" id=":1130457572_5">
      <lane allow="delivery bicycle pedestrian" id=":1130457572_5_0" index="0" length="4.82" shape="323.18,116.63 321.72,116.91 320.85,116.61 320.57,115.73 320.87,114.28" speed="5.56"/>
   </edge>
   <edge function="internal" id=":1130457572_6">
      <lane allow="delivery bicycle pedestrian" id=":1130457572_6_0" index="0" length="7.74" shape="314.57,118.77 320.87,114.28" speed="5.56"/>
   </edge>
   <edge function="internal" id=":1130457572_7">
      <lane allow="delivery bicycle pedestrian" id=":1130457572_7_0" index="0" length="9.50" shape="314.57,118.77 316.72,118.23 318.89,118.42 321.06,119.35 323.25,121.02" speed="5.56"/>
   </edge>
   <edge function="internal" id=":1130457572_8">
      <lane allow="delivery bicycle pedestrian" id=":1130457572_8_0" index="0" length="4.82" shape="314.57,118.77 316.03,119.05 316.73,119.65 316.67,120.57 315.85,121.81" speed="5.56"/>
   </edge>
   <edge function="internal" id=":1167924248_0">
      <lane allow="delivery bicycle pedestrian" id=":1167924248_0_0" index="0" length="4.82" shape="108.40,298.29 109.62,299.15 110.01,299.99 109.57,300.80 108.31,301.59" speed="5.56"/>
   </edge>
   <edge function="internal" id=":1167980880_0">
      <lane allow="delivery bicycle pedestrian" id=":1167980880_0_0" index="0" length="0.10" shape="52.80,274.31 52.80,274.31" speed="6.95"/>
   </edge>
   <edge function="internal" id=":1167980880_1">
      <lane disallow="tram rail_urban rail rail_electric ship" id=":1167980880_1_0" index="0" length="2.41" shape="52.80,274.31 51.63,275.23 50.72,275.37" speed="8.33"/>
   </edge>
   <edge function="internal" id=":1167980880_4">
      <lane id=":1167980880_4_0" index="0" length="2.41" shape="50.72,275.37 50.06,274.73 49.66,273.30" speed="8.33"/>
   </edge>
   <edge function="internal" id=":1167980880_2">
      <lane disallow="tram rail_urban rail rail_electric ship" id=":1167980880_2_0" index="0" length="0.10" shape="49.67,273.25 49.66,273.30" speed="6.95"/>
   </edge>
   <edge function="internal" id=":1167980880_3">
      <lane allow="delivery bicycle pedestrian" id=":1167980880_3_0" index="0" length="2.41" shape="49.67,273.25 50.85,272.34 51.77,272.22" speed="5.56"/>
   </edge>
   <edge function="internal" id=":1167980880_5">
      <lane id=":1167980880_5_0" index="0" length="2.41" shape="51.77,272.22 52.41,272.88 52.80,274.31" speed="5.56"/>
   </edge>
   <edge function="internal" id=":1168296229_0">
      <lane disallow="tram rail_urban rail rail_electric ship" id=":1168296229_0_0" index="0" length="3.59" shape="214.02,310.19 213.94,314.51" speed="8.33"/>
      <lane disallow="tram rail_urban rail rail_electric ship" id=":1168296229_0_1" index="1" length="3.59" shape="214.02,310.19 211.80,312.00" speed="8.33"/>
   </edge>
   <edge function="internal" id=":1168296229_2">
      <lane disallow="tram rail_urban rail rail_electric ship" id=":1168296229_2_0" index="0" length="4.82" shape="214.02,310.19 212.53,310.30 211.70,309.91 211.52,309.00 211.99,307.59" speed="8.33"/>
   </edge>
   <edge function="internal" id=":1168296229_3">
      <lane disallow="tram rail_urban rail rail_electric ship" id=":1168296229_3_0" index="0" length="3.01" shape="209.66,309.49 211.99,307.59" speed="8.33"/>
   </edge>
   <edge function="internal" id=":1168296229_4">
      <lane disallow="tram rail_urban rail rail_electric ship" id=":1168296229_4_0" index="0" length="4.82" shape="209.66,309.49 211.13,309.32 211.98,309.68 212.20,310.57 211.80,312.00" speed="8.33"/>
   </edge>
   <edge function="internal" id=":1168296236_0">
      <lane disallow="tram rail_urban rail rail_electric ship" id=":1168296236_0_0" index="0" length="0.10" shape="163.61,227.54 163.61,227.54" speed="8.33"/>
   </edge>
   <edge function="internal" id=":1168296243_0">
      <lane disallow="tram rail_urban rail rail_electric ship" id=":1168296243_0_0" index="0" length="0.10" shape="203.22,323.67 203.21,323.68" speed="8.33"/>
      <lane disallow="tram rail_urban rail rail_electric ship" id=":1168296243_0_1" index="1" length="0.10" shape="201.08,321.16 201.08,321.16" speed="8.33"/>
   </edge>
   <edge function="internal" id=":1168296243_2">
      <lane disallow="tram rail_urban rail rail_electric ship" id=":1168296243_2_0" index="0" length="2.41" shape="201.08,321.16 199.60,321.33 198.75,320.97" speed="8.33"/>
   </edge>
   <edge function="internal" id=":1168296243_5">
      <lane id=":1168296243_5_0" index="0" length="2.41" shape="198.75,320.97 198.53,320.08 198.94,318.65" speed="8.33"/>
   </edge>
   <edge function="internal" id=":1168296243_3">
      <lane disallow="tram rail_urban rail rail_electric ship" id=":1168296243_3_0" index="0" length="0.10" shape="198.95,318.64 198.94,318.65" speed="8.33"/>
   </edge>
   <edge function="internal" id=":1168296243_4">
      <lane disallow="tram rail_urban rail rail_electric ship" id=":1168296243_4_0" index="0" length="2.41" shape="198.95,318.64 200.42,318.47 201.27,318.83" speed="8.33"/>
   </edge>
   <edge function="internal" id=":1168296243_6">
      <lane id=":1168296243_6_0" index="0" length="2.41" shape="201.27,318.83 201.49,319.73 201.08,321.16" speed="8.33"/>
   </edge>
   <edge function="internal" id=":1172869460_0">
      <lane allow="delivery bicycle pedestrian" id=":1172869460_0_0" index="0" length="4.82" shape="30.21,631.93 30.58,630.49 31.21,629.83 32.13,629.94 33.32,630.83" speed="5.56"/>
   </edge>
   <edge function="internal" id=":1172869664_0">
      <lane disallow="tram rail_urban rail rail_electric ship" id=":1172869664_0_0" index="0" length="9.53" shape="78.56,750.36 69.45,753.14" speed="8.33"/>
   </edge>
   <edge function="internal" id=":1172869664_1">
      <lane allow="delivery bicycle pedestrian" id=":1172869664_1_0" index="0" length="5.26" shape="78.56,750.36 75.70,750.81 73.41,750.22" speed="6.95"/>
   </edge>
   <edge function="internal" id=":1172869664_2">
      <lane disallow="tram rail_urban rail rail_electric ship" id=":1172869664_2_0" index="0" length="2.41" shape="78.56,750.36 77.14,749.94 76.50,749.27" speed="8.33"/>
   </edge>
   <edge function="internal" id=":1172869664_9">
      <lane id=":1172869664_9_0" index="0" length="5.26" shape="73.41,750.22 71.70,748.59 70.57,745.93" speed="6.95"/>
   </edge>
   <edge function="internal" id=":1172869664_10">
      <lane id=":1172869664_10_0" index="0" length="2.41" shape="76.50,749.27 76.65,748.36 77.59,747.21" speed="8.33"/>
   </edge>
   <edge function="internal" id=":1172869664_3">
      <lane disallow="tram rail_urban rail rail_electric ship" id=":1172869664_3_0" index="0" length="5.05" shape="73.76,745.08 74.30,746.36 75.12,747.14 76.22,747.42 77.59,747.21" speed="6.95"/>
   </edge>
   <edge function="internal" id=":1172869664_4">
      <lane disallow="tram rail_urban rail rail_electric ship" id=":1172869664_4_0" index="0" length="10.34" shape="73.76,745.08 74.11,747.93 73.51,750.22 71.96,751.96 69.45,753.14" speed="6.95"/>
   </edge>
   <edge function="internal" id=":1172869664_5">
      <lane allow="delivery bicycle pedestrian" id=":1172869664_5_0" index="0" length="4.82" shape="73.76,745.08 73.28,746.49 72.59,747.10 71.69,746.91 70.57,745.93" speed="5.56"/>
   </edge>
   <edge function="internal" id=":1172869664_6">
      <lane allow="delivery bicycle pedestrian" id=":1172869664_6_0" index="0" length="5.15" shape="68.50,749.98 69.72,749.40 70.47,748.53 70.76,747.37 70.57,745.93" speed="6.95"/>
   </edge>
   <edge function="internal" id=":1172869664_7">
      <lane disallow="tram rail_urban rail rail_electric ship" id=":1172869664_7_0" index="0" length="9.51" shape="68.50,749.98 77.59,747.21" speed="8.33"/>
   </edge>
   <edge function="internal" id=":1172869664_8">
      <lane disallow="tram rail_urban rail rail_electric ship" id=":1172869664_8_0" index="0" length="2.41" shape="68.50,749.98 69.92,750.41 70.55,751.08" speed="8.33"/>
   </edge>
   <edge function="internal" id=":1172869664_11">
      <lane id=":1172869664_11_0" index="0" length="2.41" shape="70.55,751.08 70.40,751.99 69.45,753.14" speed="8.33"/>
   </edge>
   <edge function="internal" id=":1182547592_0">
      <lane allow="delivery bicycle pedestrian" id=":1182547592_0_0" index="0" length="2.60" shape="327.64,282.42 326.83,284.89" speed="5.56"/>
   </edge>
   <edge function="internal" id=":1182547592_1">
      <lane allow="delivery bicycle pedestrian" id=":1182547592_1_0" index="0" length="5.95" shape="327.64,282.42 326.29,276.62" speed="5.56"/>
   </edge>
   <edge function="internal" id=":1182547592_2">
      <lane allow="delivery bicycle pedestrian" id=":1182547592_2_0" index="0" length="7.90" shape="327.64,282.42 327.95,280.14 328.88,278.70 330.45,278.08 332.65,278.30" speed="5.56"/>
   </edge>
   <edge function="internal" id=":1182547592_3">
      <lane allow="delivery bicycle pedestrian" id=":1182547592_3_0" index="0" length="2.89" shape="327.64,282.42 327.69,285.30" speed="5.56"/>
   </edge>
   <edge function="internal" id=":1182547592_4">
      <lane allow="delivery bicycle pedestrian" id=":1182547592_4_0" index="0" length="5.93" shape="327.64,282.42 329.35,281.76 330.47,281.94 331.01,282.94 330.95,284.78" speed="5.56"/>
   </edge>
   <edge function="internal" id=":1182547592_5">
      <lane allow="delivery bicycle pedestrian" id=":1182547592_5_0" index="0" length="3.60" shape="332.78,287.87 330.95,284.78" speed="5.56"/>
   </edge>
   <edge function="internal" id=":1182547592_6">
      <lane allow="delivery bicycle pedestrian" id=":1182547592_6_0" index="0" length="11.09" shape="332.78,287.87 330.04,283.89 328.13,282.07 327.06,282.40 326.83,284.89" speed="5.56"/>
   </edge>
   <edge function="internal" id=":1182547592_7">
      <lane allow="delivery bicycle pedestrian" id=":1182547592_7_0" index="0" length="13.00" shape="332.78,287.87 330.94,284.96 329.33,282.36 327.82,279.70 326.29,276.62" speed="5.56"/>
   </edge>
   <edge function="internal" id=":1182547592_8">
      <lane allow="delivery bicycle pedestrian" id=":1182547592_8_0" index="0" length="13.24" shape="332.78,287.87 330.12,283.03 329.21,279.82 330.05,278.25 332.65,278.30" speed="5.56"/>
   </edge>
   <edge function="internal" id=":1182547592_9">
      <lane allow="delivery bicycle pedestrian" id=":1182547592_9_0" index="0" length="8.33" shape="332.78,287.87 330.54,289.14 328.95,289.13 328.00,287.85 327.69,285.30" speed="5.56"/>
   </edge>
   <edge function="internal" id=":1182547592_10">
      <lane allow="delivery bicycle pedestrian" id=":1182547592_10_0" index="0" length="7.19" shape="331.84,281.50 329.78,281.29 328.40,281.85 327.70,283.19 327.69,285.30" speed="5.56"/>
   </edge>
   <edge function="internal" id=":1182547592_11">
      <lane allow="delivery bicycle pedestrian" id=":1182547592_11_0" index="0" length="3.65" shape="331.84,281.50 331.45,281.62 331.17,282.20 331.00,283.26 330.95,284.78" speed="5.56"/>
   </edge>
   <edge function="internal" id=":1182547592_12">
      <lane allow="delivery bicycle pedestrian" id=":1182547592_12_0" index="0" length="7.48" shape="331.84,281.50 329.56,281.22 327.96,281.69 327.05,282.91 326.83,284.89" speed="5.56"/>
   </edge>
   <edge function="internal" id=":1182547592_13">
      <lane allow="delivery bicycle pedestrian" id=":1182547592_13_0" index="0" length="7.65" shape="331.84,281.50 330.10,280.84 328.59,279.81 327.32,278.41 326.29,276.62" speed="5.56"/>
   </edge>
   <edge function="internal" id=":1182547592_14">
      <lane allow="delivery bicycle pedestrian" id=":1182547592_14_0" index="0" length="4.82" shape="331.84,281.50 330.84,280.40 330.64,279.50 331.24,278.80 332.65,278.30" speed="5.56"/>
   </edge>
   <edge function="internal" id=":1182547592_15">
      <lane allow="delivery bicycle pedestrian" id=":1182547592_15_0" index="0" length="4.70" shape="329.29,275.24 329.93,276.37 330.71,277.26 331.61,277.90 332.65,278.30" speed="5.56"/>
   </edge>
   <edge function="internal" id=":1182547592_16">
      <lane allow="delivery bicycle pedestrian" id=":1182547592_16_0" index="0" length="10.52" shape="329.29,275.24 329.83,278.03 329.03,280.11 327.96,282.27 327.69,285.30" speed="5.56"/>
   </edge>
   <edge function="internal" id=":1182547592_17">
      <lane allow="delivery bicycle pedestrian" id=":1182547592_17_0" index="0" length="9.68" shape="329.29,275.24 330.95,284.78" speed="5.56"/>
   </edge>
   <edge function="internal" id=":1182547592_18">
      <lane allow="delivery bicycle pedestrian" id=":1182547592_18_0" index="0" length="9.96" shape="329.29,275.24 326.83,284.89" speed="5.56"/>
   </edge>
   <edge function="internal" id=":1182547592_19">
      <lane allow="delivery bicycle pedestrian" id=":1182547592_19_0" index="0" length="4.82" shape="329.29,275.24 329.06,276.71 328.48,277.43 327.56,277.40 326.29,276.62" speed="5.56"/>
   </edge>
   <edge function="internal" id=":1182547592_20">
      <lane allow="delivery bicycle pedestrian" id=":1182547592_20_0" index="0" length="4.50" shape="325.74,280.83 326.38,279.85 326.68,278.81 326.65,277.74 326.29,276.62" speed="5.56"/>
   </edge>
   <edge function="internal" id=":1182547592_21">
      <lane allow="delivery bicycle pedestrian" id=":1182547592_21_0" index="0" length="7.79" shape="325.74,280.83 327.27,279.35 328.93,278.43 330.72,278.08 332.65,278.30" speed="5.56"/>
   </edge>
   <edge function="internal" id=":1182547592_22">
      <lane allow="delivery bicycle pedestrian" id=":1182547592_22_0" index="0" length="5.62" shape="325.74,280.83 326.30,280.58 326.82,281.24 327.28,282.81 327.69,285.30" speed="5.56"/>
   </edge>
   <edge function="internal" id=":1182547592_23">
      <lane allow="delivery bicycle pedestrian" id=":1182547592_23_0" index="0" length="11.01" shape="325.74,280.83 328.01,278.75 329.63,278.71 330.61,280.72 330.95,284.78" speed="5.56"/>
   </edge>
   <edge function="internal" id=":1182547592_24">
      <lane allow="delivery bicycle pedestrian" id=":1182547592_24_0" index="0" length="6.14" shape="325.74,280.83 327.53,281.44 328.31,282.32 328.08,283.47 326.83,284.89" speed="5.56"/>
   </edge>
   <edge function="internal" id=":1182547594_0">
      <lane disallow="tram rail_urban rail rail_electric ship" id=":1182547594_0_0" index="0" length="5.30" shape="314.37,251.06 313.54,249.77 312.54,249.02 311.39,248.80 310.08,249.10" speed="6.95"/>
   </edge>
   <edge function="internal" id=":1182547594_1">
      <lane disallow="tram rail_urban rail rail_electric ship" id=":1182547594_1_0" index="0" length="10.71" shape="314.37,251.06 313.47,248.24 313.72,245.86 315.13,243.93 317.70,242.46" speed="6.95"/>
   </edge>
   <edge function="internal" id=":1182547594_2">
      <lane allow="delivery bicycle pedestrian" id=":1182547594_2_0" index="0" length="4.82" shape="314.37,251.06 314.57,249.59 315.13,248.85 316.05,248.86 317.34,249.61" speed="5.56"/>
   </edge>
   <edge function="internal" id=":1182547594_3">
      <lane allow="delivery bicycle pedestrian" id=":1182547594_3_0" index="0" length="5.09" shape="318.92,245.52 317.70,246.23 317.03,247.14 316.91,248.27 317.34,249.61" speed="6.95"/>
   </edge>
   <edge function="internal" id=":1182547594_4">
      <lane disallow="tram rail_urban rail rail_electric ship" id=":1182547594_4_0" index="0" length="9.54" shape="318.92,245.52 310.08,249.10" speed="8.33"/>
   </edge>
   <edge function="internal" id=":1182547594_5">
      <lane disallow="tram rail_urban rail rail_electric ship" id=":1182547594_5_0" index="0" length="2.41" shape="318.92,245.52 317.47,245.21 316.78,244.60" speed="8.33"/>
   </edge>
   <edge function="internal" id=":1182547594_9">
      <lane id=":1182547594_9_0" index="0" length="2.41" shape="316.78,244.60 316.86,243.68 317.70,242.46" speed="8.33"/>
   </edge>
   <edge function="internal" id=":1182547594_6">
      <lane disallow="tram rail_urban rail rail_electric ship" id=":1182547594_6_0" index="0" length="9.58" shape="308.82,246.05 317.70,242.46" speed="8.33"/>
   </edge>
   <edge function="internal" id=":1182547594_7">
      <lane allow="delivery bicycle pedestrian" id=":1182547594_7_0" index="0" length="5.17" shape="308.82,246.05 311.47,245.40 313.77,245.78 313.87,245.84" speed="6.95"/>
   </edge>
   <edge function="internal" id=":1182547594_8">
      <lane disallow="tram rail_urban rail rail_electric ship" id=":1182547594_8_0" index="0" length="2.41" shape="308.82,246.05 310.28,246.34 310.98,246.95" speed="8.33"/>
   </edge>
   <edge function="internal" id=":1182547594_10">
      <lane id=":1182547594_10_0" index="0" length="5.21" shape="313.87,245.84 315.73,247.18 317.34,249.61" speed="6.95"/>
   </edge>
   <edge function="internal" id=":1182547594_11">
      <lane id=":1182547594_11_0" index="0" length="2.41" shape="310.98,246.95 310.91,247.87 310.08,249.10" speed="8.33"/>
   </edge>
   <edge function="internal" id=":1182547595_0">
      <lane allow="delivery bicycle pedestrian" id=":1182547595_0_0" index="0" length="0.20" shape="334.66,286.91 334.61,286.73" speed="5.56"/>
   </edge>
   <edge function="internal" id=":1182547595_1">
      <lane allow="delivery bicycle pedestrian" id=":1182547595_1_0" index="0" length="2.41" shape="334.66,286.91 335.18,285.52 335.89,284.93" speed="5.56"/>
   </edge>
   <edge function="internal" id=":1182547595_4">
      <lane id=":1182547595_4_0" index="0" length="2.41" shape="335.89,284.93 336.79,285.15 337.87,286.16" speed="5.56"/>
   </edge>
   <edge function="internal" id=":1182547595_2">
      <lane allow="delivery bicycle pedestrian" id=":1182547595_2_0" index="0" length="0.60" shape="337.70,285.59 337.87,286.16" speed="5.56"/>
   </edge>
   <edge function="internal" id=":1182547595_3">
      <lane allow="delivery bicycle pedestrian" id=":1182547595_3_0" index="0" length="2.41" shape="337.70,285.59 337.35,287.04 336.72,287.71" speed="5.56"/>
   </edge>
   <edge function="internal" id=":1182547595_5">
      <lane id=":1182547595_5_0" index="0" length="2.41" shape="336.72,287.71 335.81,287.60 334.61,286.73" speed="5.56"/>
   </edge>
   <edge function="internal" id=":1182547609_0">
      <lane allow="delivery bicycle pedestrian" id=":1182547609_0_0" index="0" length="0.52" shape="339.22,303.57 339.09,303.06" speed="5.56"/>
   </edge>
   <edge function="internal" id=":1182547609_1">
      <lane allow="delivery bicycle pedestrian" id=":1182547609_1_0" index="0" length="2.41" shape="339.22,303.57 339.93,302.26 340.71,301.77" speed="5.56"/>
   </edge>
   <edge function="internal" id=":1182547609_4">
      <lane id=":1182547609_4_0" index="0" length="2.41" shape="340.71,301.77 341.57,302.11 342.50,303.27" speed="5.56"/>
   </edge>
   <edge function="internal" id=":1182547609_2">
      <lane allow="delivery bicycle pedestrian" id=":1182547609_2_0" index="0" length="1.59" shape="342.11,301.73 342.50,303.27" speed="5.56"/>
   </edge>
   <edge function="internal" id=":1182547609_3">
      <lane allow="delivery bicycle pedestrian" id=":1182547609_3_0" index="0" length="2.41" shape="342.11,301.73 341.85,303.20 341.26,303.91" speed="5.56"/>
   </edge>
   <edge function="internal" id=":1182547609_5">
      <lane id=":1182547609_5_0" index="0" length="2.41" shape="341.26,303.91 340.34,303.86 339.09,303.06" speed="5.56"/>
   </edge>
   <edge function="internal" id=":1182547619_0">
      <lane allow="delivery bicycle pedestrian" id=":1182547619_0_0" index="0" length="0.92" shape="337.87,300.32 337.58,299.45" speed="5.56"/>
   </edge>
   <edge function="internal" id=":1182547619_1">
      <lane allow="delivery bicycle pedestrian" id=":1182547619_1_0" index="0" length="2.41" shape="337.87,300.32 338.13,298.85 338.72,298.14" speed="5.56"/>
   </edge>
   <edge function="internal" id=":1182547619_4">
      <lane id=":1182547619_4_0" index="0" length="2.41" shape="338.72,298.14 339.64,298.19 340.89,298.99" speed="5.56"/>
   </edge>
   <edge function="internal" id=":1182547619_2">
      <lane allow="delivery bicycle pedestrian" id=":1182547619_2_0" index="0" length="0.30" shape="340.80,298.70 340.89,298.99" speed="5.56"/>
   </edge>
   <edge function="internal" id=":1182547619_3">
      <lane allow="delivery bicycle pedestrian" id=":1182547619_3_0" index="0" length="2.41" shape="340.80,298.70 340.28,300.09 339.57,300.68" speed="5.56"/>
   </edge>
   <edge function="internal" id=":1182547619_5">
      <lane id=":1182547619_5_0" index="0" length="2.41" shape="339.57,300.68 338.67,300.47 337.58,299.45" speed="5.56"/>
   </edge>
   <edge function="internal" id=":1182547644_0">
      <lane disallow="tram rail_urban rail rail_electric ship" id=":1182547644_0_0" index="0" length="0.10" shape="284.24,259.79 284.26,259.78" speed="8.33"/>
   </edge>
   <edge function="internal" id=":1182547644_1">
      <lane disallow="tram rail_urban rail rail_electric ship" id=":1182547644_1_0" index="0" length="2.41" shape="284.24,259.79 282.78,259.50 282.08,258.89" speed="8.33"/>
   </edge>
   <edge function="internal" id=":1182547644_4">
      <lane id=":1182547644_4_0" index="0" length="2.41" shape="282.08,258.89 282.15,257.97 282.98,256.74" speed="8.33"/>
   </edge>
   <edge function="internal" id=":1182547644_2">
      <lane disallow="tram rail_urban rail rail_electric ship" id=":1182547644_2_0" index="0" length="0.10" shape="282.97,256.74 282.98,256.74" speed="8.33"/>
   </edge>
   <edge function="internal" id=":1182547644_3">
      <lane disallow="tram rail_urban rail rail_electric ship" id=":1182547644_3_0" index="0" length="2.41" shape="282.97,256.74 284.43,257.02 285.13,257.62" speed="8.33"/>
   </edge>
   <edge function="internal" id=":1182547644_5">
      <lane id=":1182547644_5_0" index="0" length="2.41" shape="285.13,257.62 285.08,258.54 284.26,259.78" speed="8.33"/>
   </edge>
   <edge function="internal" id=":1185860604_0">
      <lane disallow="tram rail_urban rail rail_electric ship" id=":1185860604_0_0" index="0" length="0.47" shape="843.98,21.08 844.17,21.77" speed="13.89"/>
      <lane disallow="tram rail_urban rail rail_electric ship" id=":1185860604_0_1" index="1" length="0.47" shape="840.87,22.17 840.93,22.39" speed="13.89"/>
   </edge>
   <edge function="internal" id=":1209148777_0">
      <lane allow="delivery bicycle pedestrian" id=":1209148777_0_0" index="0" length="0.10" shape="319.28,235.49 319.28,235.49" speed="5.56"/>
   </edge>
   <edge function="internal" id=":1209148787_0">
      <lane allow="delivery bicycle pedestrian" id=":1209148787_0_0" index="0" length="0.10" shape="323.95,233.92 323.95,233.92" speed="5.56"/>
   </edge>
   <edge function="internal" id=":1248767763_0">