<?xml version="1.0" encoding="utf-8"?><!-- generated on 10/11/17 17:52:54 by SUMO netconvert Version 0.25.0
<?xml version="1.0" encoding="UTF-8"?>

<configuration xmlns:xsi="http://www.w3.org/2001/XMLSchema-instance" xsi:noNamespaceSchemaLocation="http://sumo.dlr.de/xsd/netconvertConfiguration.xsd">

    <input>
        <type-files value="osmNetconvert.typ.xml"/>
        <osm-files value="FR_IGNord_industrial_800.osm"/>
    </input>

    <output>
        <output-file value="FR_IGNord_industrial_800.net.xml"/>
    </output>

    <projection>
        <proj.utm value="true"/>
    </projection>

    <edge_removal>
        <remove-edges.by-type value="highway.track,highway.unsurfaced,highway.raceway,highway.bridleway,highway.path,highway.footway,highway.pedestrian,highway.cycleway,highway.step,highway.steps,highway.stairs,highway.bus_guideway,highway.ford,railway.rail,railway.tram,railway.light_rail,railway.subway,railway.preserved,railway.narrow_gauge,railway.monorail,railway.funicular"/>
    </edge_removal>

</configuration>
-->
<net version="0.25">
   <location convBoundary="0.00,0.00,861.36,859.47" netOffset="-413845.56,-5319707.41" origBoundary="7.844312,48.024900,7.855965,48.032581" projParameter="+proj=utm +zone=32 +ellps=WGS84 +datum=WGS84 +units=m +no_defs"/>
   <type allow="pedestrian" id="highway.bridleway" numLanes="1" oneway="1" priority="1" speed="2.78" width="2.00"/>
   <type allow="bus" id="highway.bus_guideway" numLanes="1" oneway="1" priority="1" speed="8.33"/>
   <type allow="bicycle" id="highway.cycleway" numLanes="1" oneway="0" priority="1" speed="5.56" width="1.00"/>
   <type allow="pedestrian" id="highway.footway" numLanes="1" oneway="1" priority="1" speed="8.33" width="2.00"/>
   <type allow="army" id="highway.ford" numLanes="1" oneway="0" priority="1" speed="2.78"/>
   <type disallow="tram rail_urban rail rail_electric ship" id="highway.living_street" numLanes="1" oneway="0" priority="3" speed="2.78"/>
   <type allow="private emergency authority army vip passenger hov taxi bus coach delivery truck trailer motorcycle evehicle custom1 custom2" id="highway.motorway" numLanes="2" oneway="1" priority="13" speed="44.44"/>
   <type allow="private emergency authority army vip passenger hov taxi bus coach delivery truck trailer motorcycle evehicle custom1 custom2" id="highway.motorway_link" numLanes="1" oneway="1" priority="12" speed="22.22"/>
   <type allow="bicycle pedestrian" id="highway.path" numLanes="1" oneway="1" priority="1" speed="2.78" width="2.00"/>
   <type allow="pedestrian" id="highway.pedestrian" numLanes="1" oneway="1" priority="1" speed="8.33" width="2.00"/>
   <type disallow="tram rail_urban rail rail_electric ship" id="highway.primary" numLanes="2" oneway="0" priority="9" speed="27.78"/>
   <type disallow="tram rail_urban rail rail_electric ship" id="highway.primary_link" numLanes="1" oneway="0" priority="8" speed="22.22"/>
   <type allow="vip" id="highway.raceway" numLanes="2" oneway="0" priority="14" speed="83.33"/>
   <type disallow="tram rail_urban rail rail_electric ship" id="highway.residential" numLanes="1" oneway="0" priority="4" speed="13.89"/>
   <type disallow="tram rail_urban rail rail_electric ship" id="highway.secondary" numLanes="2" oneway="0" priority="7" speed="27.78"/>
   <type disallow="tram rail_urban rail rail_electric ship" id="highway.secondary_link" numLanes="1" oneway="0" priority="6" speed="22.22"/>
   <type allow="delivery bicycle pedestrian" id="highway.service" numLanes="1" oneway="0" priority="2" speed="5.56"/>
   <type disallow="tram rail_urban rail rail_electric ship" id="highway.services" numLanes="1" oneway="0" priority="1" speed="8.33"/>
   <type allow="pedestrian" id="highway.stairs" numLanes="1" oneway="1" priority="1" speed="1.39" width="2.00"/>
   <type allow="pedestrian" id="highway.step" numLanes="1" oneway="1" priority="1" speed="1.39" width="2.00"/>
   <type allow="pedestrian" id="highway.steps" numLanes="1" oneway="1" priority="1" speed="1.39" width="2.00"/>
   <type disallow="tram rail_urban rail rail_electric ship" id="highway.tertiary" numLanes="1" oneway="0" priority="6" speed="22.22"/>
   <type disallow="tram rail_urban rail rail_electric ship" id="highway.tertiary_link" numLanes="1" oneway="0" priority="5" speed="22.22"/>
   <type disallow="tram rail_urban rail rail_electric ship" id="highway.track" numLanes="1" oneway="0" priority="1" speed="5.56"/>
   <type disallow="tram rail_urban rail rail_electric bicycle pedestrian ship" id="highway.trunk" numLanes="2" oneway="0" priority="11" speed="27.78"/>
   <type disallow="tram rail_urban rail rail_electric bicycle pedestrian ship" id="highway.trunk_link" numLanes="1" oneway="0" priority="10" speed="22.22"/>
   <type disallow="tram rail_urban rail rail_electric ship" id="highway.unclassified" numLanes="1" oneway="0" priority="5" speed="13.89"/>
   <type disallow="tram rail_urban rail rail_electric ship" id="highway.unsurfaced" numLanes="1" oneway="0" priority="1" speed="8.33"/>
   <type allow="rail_urban" id="railway.light_rail" numLanes="1" oneway="1" priority="15" speed="27.78"/>
   <type allow="rail" id="railway.preserved" numLanes="1" oneway="1" priority="15" speed="27.78"/>
   <type allow="rail rail_electric" id="railway.rail" numLanes="1" oneway="1" priority="15" speed="83.33"/>
   <type allow="rail_urban" id="railway.subway" numLanes="1" oneway="1" priority="15" speed="27.78"/>
   <type allow="tram" id="railway.tram" numLanes="1" oneway="1" priority="15" speed="13.89"/>
   <edge function="internal" id=":1052750799_0">
      <lane allow="delivery bicycle pedestrian" id=":1052750799_0_0" index="0" length="0.10" shape="225.28,52.96 225.27,52.95" speed="5.56"/>
   </edge>
   <edge function="internal" id=":1052750799_1">
      <lane allow="delivery bicycle pedestrian" id=":1052750799_1_0" index="0" length="2.41" shape="225.28,52.96 224.54,51.67 224.54,50.74" speed="5.56"/>
   </edge>
   <edge function="internal" id=":1052750799_4">
      <lane id=":1052750799_4_0" index="0" length="2.41" shape="224.54,50.74 225.28,50.19 226.75,50.00" speed="5.56"/>
   </edge>
   <edge function="internal" id=":1052750799_2">
      <lane allow="delivery bicycle pedestrian" id=":1052750799_2_0" index="0" length="0.10" shape="226.78,50.01 226.75,50.00" speed="5.56"/>
   </edge>
   <edge function="internal" id=":1052750799_3">
      <lane allow="delivery bicycle pedestrian" id=":1052750799_3_0" index="0" length="2.41" shape="226.78,50.01 227.50,51.31 227.49,52.23" speed="5.56"/>
   </edge>
   <edge function="internal" id=":1052750799_5">
      <lane id=":1052750799_5_0" index="0" length="2.41" shape="227.49,52.23 226.75,52.78 225.27,52.95" speed="5.56"/>
   </edge>
   <edge function="internal" id=":1052801319_0">
      <lane allow="delivery bicycle pedestrian" id=":1052801319_0_0" index="0" length="4.82" shape="162.71,168.30 164.01,167.57 164.93,167.57 165.48,168.31 165.66,169.79" speed="5.56"/>
   </edge>
   <edge function="internal" id=":1052801379_0">
      <lane allow="delivery bicycle pedestrian" id=":1052801379_0_0" index="0" length="4.82" shape="115.02,176.80 114.29,175.50 114.29,174.58 115.03,174.03 116.51,173.85" speed="5.56"/>
   </edge>
   <edge function="internal" id=":1052801390_0">
      <lane allow="delivery bicycle pedestrian" id=":1052801390_0_0" index="0" length="9.50" shape="125.41,182.05 116.93,177.77" speed="5.56"/>
   </edge>
   <edge function="internal" id=":1052801390_1">
      <lane allow="delivery bicycle pedestrian" id=":1052801390_1_0" index="0" length="10.33" shape="125.41,182.05 123.09,180.43 121.85,178.46 121.68,176.13 122.60,173.45" speed="5.56"/>
   </edge>
   <edge function="internal" id=":1052801390_2">
      <lane allow="delivery bicycle pedestrian" id=":1052801390_2_0" index="0" length="4.82" shape="125.41,182.05 124.68,180.76 124.68,179.84 125.42,179.29 126.90,179.11" speed="5.56"/>
   </edge>
   <edge function="internal" id=":1052801390_3">
      <lane allow="delivery bicycle pedestrian" id=":1052801390_3_0" index="0" length="5.00" shape="125.54,174.94 125.09,176.24 125.17,177.37 125.78,178.32 126.90,179.11" speed="5.56"/>
   </edge>
   <edge function="internal" id=":1052801390_4">
      <lane allow="delivery bicycle pedestrian" id=":1052801390_4_0" index="0" length="10.32" shape="125.54,174.94 123.91,177.26 121.93,178.50 119.61,178.67 116.93,177.77" speed="5.56"/>
   </edge>
   <edge function="internal" id=":1052801390_5">
      <lane allow="delivery bicycle pedestrian" id=":1052801390_5_0" index="0" length="4.82" shape="125.54,174.94 124.24,175.67 123.32,175.67 122.77,174.92 122.60,173.45" speed="5.56"/>
   </edge>
   <edge function="internal" id=":1052801390_6">
      <lane allow="delivery bicycle pedestrian" id=":1052801390_6_0" index="0" length="5.01" shape="118.42,174.82 119.72,175.26 120.85,175.18 121.81,174.57 122.60,173.45" speed="5.56"/>
   </edge>
   <edge function="internal" id=":1052801390_7">
      <lane allow="delivery bicycle pedestrian" id=":1052801390_7_0" index="0" length="9.50" shape="118.42,174.82 126.90,179.11" speed="5.56"/>
   </edge>
   <edge function="internal" id=":1052801390_8">
      <lane allow="delivery bicycle pedestrian" id=":1052801390_8_0" index="0" length="4.82" shape="118.42,174.82 119.15,176.12 119.15,177.04 118.41,177.59 116.93,177.77" speed="5.56"/>
   </edge>
   <edge function="internal" id=":1052801397_0">
      <lane disallow="tram rail_urban rail rail_electric ship" id=":1052801397_0_0" index="0" length="9.42" shape="176.82,201.14 172.61,209.56" speed="13.89"/>
   </edge>
   <edge function="internal" id=":1052801397_1">
      <lane allow="delivery bicycle pedestrian" id=":1052801397_1_0" index="0" length="5.18" shape="176.82,201.14 175.19,203.46 173.20,204.69" speed="9.72"/>
   </edge>
   <edge function="internal" id=":1052801397_2">
      <lane disallow="tram rail_urban rail rail_electric ship" id=":1052801397_2_0" index="0" length="2.41" shape="176.82,201.14 175.52,201.87 174.60,201.86" speed="13.89"/>
   </edge>
   <edge function="internal" id=":1052801397_9">
      <lane id=":1052801397_9_0" index="0" length="5.18" shape="173.20,204.69 170.87,204.84 168.19,203.90" speed="9.72"/>
   </edge>
   <edge function="internal" id=":1052801397_10">
      <lane id=":1052801397_10_0" index="0" length="2.41" shape="174.60,201.86 174.05,201.11 173.88,199.64" speed="13.89"/>
   </edge>
   <edge function="internal" id=":1052801397_3">
      <lane disallow="tram rail_urban rail rail_electric ship" id=":1052801397_3_0" index="0" length="5.01" shape="169.71,200.97 171.00,201.43 172.13,201.36 173.09,200.76 173.88,199.64" speed="9.72"/>
   </edge>
   <edge function="internal" id=":1052801397_4">
      <lane disallow="tram rail_urban rail rail_electric ship" id=":1052801397_4_0" index="0" length="10.28" shape="169.71,200.97 172.01,202.61 173.27,204.59 173.46,206.91 172.61,209.56" speed="9.72"/>
   </edge>
   <edge function="internal" id=":1052801397_5">
      <lane allow="delivery bicycle pedestrian" id=":1052801397_5_0" index="0" length="4.82" shape="169.71,200.97 170.43,202.28 170.41,203.20 169.66,203.74 168.19,203.90" speed="5.56"/>
   </edge>
   <edge function="internal" id=":1052801397_6">
      <lane allow="delivery bicycle pedestrian" id=":1052801397_6_0" index="0" length="5.05" shape="169.64,208.11 170.06,206.82 169.95,205.68 169.33,204.71 168.19,203.90" speed="9.72"/>
   </edge>
   <edge function="internal" id=":1052801397_7">
      <lane disallow="tram rail_urban rail rail_electric ship" id=":1052801397_7_0" index="0" length="9.47" shape="169.64,208.11 173.88,199.64" speed="13.89"/>
   </edge>
   <edge function="internal" id=":1052801397_8">
      <lane disallow="tram rail_urban rail rail_electric ship" id=":1052801397_8_0" index="0" length="2.41" shape="169.64,208.11 170.93,207.36 171.85,207.36" speed="13.89"/>
   </edge>
   <edge function="internal" id=":1052801397_11">
      <lane id=":1052801397_11_0" index="0" length="2.41" shape="171.85,207.36 172.41,208.09 172.61,209.56" speed="13.89"/>
   </edge>
   <edge function="internal" id=":1052801407_0">
      <lane allow="delivery bicycle pedestrian" id=":1052801407_0_0" index="0" length="4.82" shape="132.91,153.17 134.20,152.44 135.12,152.44 135.67,153.19 135.85,154.66" speed="5.56"/>
   </edge>
   <edge function="internal" id=":1052801422_0">
      <lane allow="delivery bicycle pedestrian" id=":1052801422_0_0" index="0" length="4.82" shape="148.46,160.04 149.76,159.31 150.68,159.31 151.23,160.06 151.40,161.53" speed="5.56"/>
   </edge>
   <edge function="internal" id=":1052801436_0">
      <lane allow="delivery bicycle pedestrian" id=":1052801436_0_0" index="0" length="9.45" shape="155.18,197.15 146.77,192.84" speed="5.56"/>
   </edge>
   <edge function="internal" id=":1052801436_1">
      <lane allow="delivery bicycle pedestrian" id=":1052801436_1_0" index="0" length="10.29" shape="155.18,197.15 152.89,195.51 151.67,193.53 151.51,191.20 152.43,188.53" speed="5.56"/>
   </edge>
   <edge function="internal" id=":1052801436_2">
      <lane allow="delivery bicycle pedestrian" id=":1052801436_2_0" index="0" length="4.82" shape="155.18,197.15 154.46,195.85 154.47,194.92 155.22,194.38 156.70,194.22" speed="5.56"/>
   </edge>
   <edge function="internal" id=":1052801436_3">
      <lane allow="delivery bicycle pedestrian" id=":1052801436_3_0" index="0" length="5.01" shape="155.37,190.03 154.92,191.33 155.00,192.46 155.59,193.43 156.70,194.22" speed="5.56"/>
   </edge>
   <edge function="internal" id=":1052801436_4">
      <lane allow="delivery bicycle pedestrian" id=":1052801436_4_0" index="0" length="10.31" shape="155.37,190.03 153.74,192.34 151.77,193.58 149.45,193.75 146.77,192.84" speed="5.56"/>
   </edge>
   <edge function="internal" id=":1052801436_5">
      <lane allow="delivery bicycle pedestrian" id=":1052801436_5_0" index="0" length="4.82" shape="155.37,190.03 154.07,190.76 153.15,190.75 152.60,190.01 152.43,188.53" speed="5.56"/>
   </edge>
   <edge function="internal" id=":1052801436_6">
      <lane allow="delivery bicycle pedestrian" id=":1052801436_6_0" index="0" length="5.00" shape="148.26,189.90 149.56,190.34 150.68,190.25 151.64,189.65 152.43,188.53" speed="5.56"/>
   </edge>
   <edge function="internal" id=":1052801436_7">
      <lane allow="delivery bicycle pedestrian" id=":1052801436_7_0" index="0" length="9.48" shape="148.26,189.90 156.70,194.22" speed="5.56"/>
   </edge>
   <edge function="internal" id=":1052801436_8">
      <lane allow="delivery bicycle pedestrian" id=":1052801436_8_0" index="0" length="4.82" shape="148.26,189.90 148.99,191.19 148.99,192.11 148.25,192.66 146.77,192.84" speed="5.56"/>
   </edge>
   <edge function="internal" id=":1052801468_0">
      <lane allow="delivery bicycle pedestrian" id=":1052801468_0_0" index="0" length="4.82" shape="38.57,96.07 39.86,95.32 40.78,95.31 41.34,96.05 41.54,97.52" speed="5.56"/>
   </edge>
   <edge function="internal" id=":1052801470_0">
      <lane allow="delivery bicycle pedestrian" id=":1052801470_0_0" index="0" length="5.22" shape="100.21,197.65 98.91,197.28 97.76,197.45 96.76,198.14 95.90,199.37" speed="5.56"/>
   </edge>
   <edge function="internal" id=":1052801470_1">
      <lane allow="delivery bicycle pedestrian" id=":1052801470_1_0" index="0" length="9.52" shape="100.21,197.65 91.55,193.70" speed="5.56"/>
   </edge>
   <edge function="internal" id=":1052801470_2">
      <lane allow="delivery bicycle pedestrian" id=":1052801470_2_0" index="0" length="4.82" shape="100.21,197.65 99.43,196.38 99.40,195.46 100.12,194.88 101.58,194.65" speed="5.56"/>
   </edge>
   <edge function="internal" id=":1052801470_3">
      <lane allow="delivery bicycle pedestrian" id=":1052801470_3_0" index="0" length="9.53" shape="92.91,190.69 101.58,194.65" speed="5.56"/>
   </edge>
   <edge function="internal" id=":1052801470_4">
      <lane allow="delivery bicycle pedestrian" id=":1052801470_4_0" index="0" length="10.60" shape="92.91,190.69 95.38,192.27 96.70,194.24 96.88,196.61 95.90,199.37" speed="5.56"/>
   </edge>
   <edge function="internal" id=":1052801470_5">
      <lane allow="delivery bicycle pedestrian" id=":1052801470_5_0" index="0" length="4.82" shape="92.91,190.69 93.70,191.95 93.73,192.87 93.02,193.46 91.55,193.70" speed="5.56"/>
   </edge>
   <edge function="internal" id=":1052801470_6">
      <lane allow="delivery bicycle pedestrian" id=":1052801470_6_0" index="0" length="5.07" shape="92.98,197.84 93.44,196.52 93.36,195.39 92.73,194.45 91.55,193.70" speed="5.56"/>
   </edge>
   <edge function="internal" id=":1052801470_7">
      <lane allow="delivery bicycle pedestrian" id=":1052801470_7_0" index="0" length="10.35" shape="92.98,197.84 94.64,195.48 96.63,194.16 98.95,193.89 101.58,194.65" speed="5.56"/>
   </edge>
   <edge function="internal" id=":1052801470_8">
      <lane allow="delivery bicycle pedestrian" id=":1052801470_8_0" index="0" length="4.82" shape="92.98,197.84 94.28,197.13 95.20,197.14 95.74,197.89 95.90,199.37" speed="5.56"/>
   </edge>
   <edge function="internal" id=":1052801490_0">
      <lane allow="delivery bicycle pedestrian" id=":1052801490_0_0" index="0" length="8.52" shape="81.38,230.73 74.59,225.58" speed="5.56"/>
   </edge>
   <edge function="internal" id=":1052801490_1">
      <lane allow="delivery bicycle pedestrian" id=":1052801490_1_0" index="0" length="9.88" shape="81.38,230.73 79.94,228.82 79.32,226.66 79.53,224.26 80.56,221.62" speed="5.56"/>
   </edge>
   <edge function="internal" id=":1052801490_2">
      <lane allow="delivery bicycle pedestrian" id=":1052801490_2_0" index="0" length="4.82" shape="81.38,230.73 81.07,229.28 81.35,228.40 82.22,228.09 83.68,228.36" speed="5.56"/>
   </edge>
   <edge function="internal" id=":1052801490_3">
      <lane allow="delivery bicycle pedestrian" id=":1052801490_3_0" index="0" length="5.62" shape="83.49,223.15 82.85,224.73 82.66,226.12 82.94,227.33 83.68,228.36" speed="5.56"/>
   </edge>
   <edge function="internal" id=":1052801490_4">
      <lane allow="delivery bicycle pedestrian" id=":1052801490_4_0" index="0" length="10.70" shape="83.49,223.15 81.76,225.55 79.69,226.76 77.31,226.77 74.59,225.58" speed="5.56"/>
   </edge>
   <edge function="internal" id=":1052801490_5">
      <lane allow="delivery bicycle pedestrian" id=":1052801490_5_0" index="0" length="4.82" shape="83.49,223.15 82.18,223.86 81.26,223.85 80.72,223.10 80.56,221.62" speed="5.56"/>
   </edge>
   <edge function="internal" id=":1052801490_6">
      <lane allow="delivery bicycle pedestrian" id=":1052801490_6_0" index="0" length="5.09" shape="76.33,222.78 77.62,223.34 78.76,223.34 79.74,222.76 80.56,221.62" speed="5.56"/>
   </edge>
   <edge function="internal" id=":1052801490_7">
      <lane allow="delivery bicycle pedestrian" id=":1052801490_7_0" index="0" length="9.23" shape="76.33,222.78 83.68,228.36" speed="5.56"/>
   </edge>
   <edge function="internal" id=":1052801490_8">
      <lane allow="delivery bicycle pedestrian" id=":1052801490_8_0" index="0" length="4.82" shape="76.33,222.78 76.95,224.13 76.86,225.05 76.08,225.53 74.59,225.58" speed="5.56"/>
   </edge>
   <edge function="internal" id=":1052801491_0">
      <lane disallow="tram rail_urban rail rail_electric ship" id=":1052801491_0_0" index="0" length="9.85" shape="136.73,274.98 131.88,283.56" speed="13.89"/>
   </edge>
   <edge function="internal" id=":1052801491_1">
      <lane allow="delivery bicycle pedestrian" id=":1052801491_1_0" index="0" length="5.61" shape="136.73,274.98 134.62,277.74 132.70,278.67" speed="9.72"/>
   </edge>
   <edge function="internal" id=":1052801491_2">
      <lane disallow="tram rail_urban rail rail_electric ship" id=":1052801491_2_0" index="0" length="2.41" shape="136.73,274.98 135.40,275.66 134.48,275.61" speed="13.89"/>
   </edge>
   <edge function="internal" id=":1052801491_9">
      <lane id=":1052801491_9_0" index="0" length="6.45" shape="132.70,278.67 132.32,278.85 129.81,278.31 127.11,276.13" speed="9.72"/>
   </edge>
   <edge function="internal" id=":1052801491_10">
      <lane id=":1052801491_10_0" index="0" length="2.41" shape="134.48,275.61 133.96,274.85 133.85,273.37" speed="13.89"/>
   </edge>
   <edge function="internal" id=":1052801491_3">
      <lane disallow="tram rail_urban rail rail_electric ship" id=":1052801491_3_0" index="0" length="5.42" shape="129.53,273.88 130.74,274.86 131.87,275.11 132.90,274.61 133.85,273.37" speed="9.72"/>
   </edge>
   <edge function="internal" id=":1052801491_4">
      <lane disallow="tram rail_urban rail rail_electric ship" id=":1052801491_4_0" index="0" length="10.71" shape="129.53,273.88 131.51,276.46 132.56,278.93 132.68,281.29 131.88,283.56" speed="9.72"/>
   </edge>
   <edge function="internal" id=":1052801491_5">
      <lane allow="delivery bicycle pedestrian" id=":1052801491_5_0" index="0" length="4.82" shape="129.53,273.88 129.77,275.35 129.44,276.22 128.56,276.48 127.11,276.13" speed="5.56"/>
   </edge>
   <edge function="internal" id=":1052801491_6">
      <lane allow="delivery bicycle pedestrian" id=":1052801491_6_0" index="0" length="6.51" shape="129.02,281.93 129.40,280.69 129.20,279.32 128.44,277.80 127.11,276.13" speed="9.72"/>
   </edge>
   <edge function="internal" id=":1052801491_7">
      <lane disallow="tram rail_urban rail rail_electric ship" id=":1052801491_7_0" index="0" length="9.83" shape="129.02,281.93 133.85,273.37" speed="13.89"/>
   </edge>
   <edge function="internal" id=":1052801491_8">
      <lane disallow="tram rail_urban rail rail_electric ship" id=":1052801491_8_0" index="0" length="2.41" shape="129.02,281.93 130.35,281.26 131.27,281.31" speed="13.89"/>
   </edge>
   <edge function="internal" id=":1052801491_11">
      <lane id=":1052801491_11_0" index="0" length="2.41" shape="131.27,281.31 131.78,282.08 131.88,283.56" speed="13.89"/>
   </edge>
   <edge function="internal" id=":1052801514_0">
      <lane allow="delivery bicycle pedestrian" id=":1052801514_0_0" index="0" length="9.50" shape="140.57,189.71 132.09,185.43" speed="5.56"/>
   </edge>
   <edge function="internal" id=":1052801514_1">
      <lane allow="delivery bicycle pedestrian" id=":1052801514_1_0" index="0" length="10.33" shape="140.57,189.71 138.25,188.09 137.00,186.11 136.84,183.78 137.75,181.10" speed="5.56"/>
   </edge>
   <edge function="internal" id=":1052801514_2">
      <lane allow="delivery bicycle pedestrian" id=":1052801514_2_0" index="0" length="4.82" shape="140.57,189.71 139.84,188.42 139.84,187.49 140.58,186.94 142.06,186.76" speed="5.56"/>
   </edge>
   <edge function="internal" id=":1052801514_3">
      <lane allow="delivery bicycle pedestrian" id=":1052801514_3_0" index="0" length="5.00" shape="140.69,182.60 140.25,183.90 140.33,185.02 140.93,185.98 142.06,186.76" speed="5.56"/>
   </edge>
   <edge function="internal" id=":1052801514_4">
      <lane allow="delivery bicycle pedestrian" id=":1052801514_4_0" index="0" length="10.32" shape="140.69,182.60 139.07,184.91 137.09,186.16 134.76,186.33 132.09,185.43" speed="5.56"/>
   </edge>
   <edge function="internal" id=":1052801514_5">
      <lane allow="delivery bicycle pedestrian" id=":1052801514_5_0" index="0" length="4.82" shape="140.69,182.60 139.40,183.33 138.47,183.32 137.93,182.58 137.75,181.10" speed="5.56"/>
   </edge>
   <edge function="internal" id=":1052801514_6">
      <lane allow="delivery bicycle pedestrian" id=":1052801514_6_0" index="0" length="5.01" shape="133.58,182.48 134.87,182.92 136.00,182.83 136.96,182.23 137.75,181.10" speed="5.56"/>
   </edge>
   <edge function="internal" id=":1052801514_7">
      <lane allow="delivery bicycle pedestrian" id=":1052801514_7_0" index="0" length="9.50" shape="133.58,182.48 142.06,186.76" speed="5.56"/>
   </edge>
   <edge function="internal" id=":1052801514_8">
      <lane allow="delivery bicycle pedestrian" id=":1052801514_8_0" index="0" length="4.82" shape="133.58,182.48 134.31,183.78 134.31,184.70 133.57,185.25 132.09,185.43" speed="5.56"/>
   </edge>
   <edge function="internal" id=":1052801523_0">
      <lane allow="delivery bicycle pedestrian" id=":1052801523_0_0" index="0" length="9.61" shape="119.12,267.55 112.35,260.73" speed="5.56"/>
   </edge>
   <edge function="internal" id=":1052801523_1">
      <lane allow="delivery bicycle pedestrian" id=":1052801523_1_0" index="0" length="10.59" shape="119.12,267.55 117.86,265.59 117.41,263.28 117.77,260.62 118.94,257.61" speed="5.56"/>
   </edge>
   <edge function="internal" id=":1052801523_2">
      <lane allow="delivery bicycle pedestrian" id=":1052801523_2_0" index="0" length="4.82" shape="119.12,267.55 118.88,266.08 119.21,265.22 120.09,264.96 121.54,265.30" speed="5.56"/>
   </edge>
   <edge function="internal" id=":1052801523_3">
      <lane allow="delivery bicycle pedestrian" id=":1052801523_3_0" index="0" length="6.60" shape="121.90,259.08 121.07,261.09 120.74,262.79 120.89,264.20 121.54,265.30" speed="5.56"/>
   </edge>
   <edge function="internal" id=":1052801523_4">
      <lane allow="delivery bicycle pedestrian" id=":1052801523_4_0" index="0" length="12.07" shape="121.90,259.08 119.94,261.94 117.69,263.17 115.16,262.77 112.35,260.73" speed="5.56"/>
   </edge>
   <edge function="internal" id=":1052801523_5">
      <lane allow="delivery bicycle pedestrian" id=":1052801523_5_0" index="0" length="4.82" shape="121.90,259.08 120.61,259.82 119.69,259.82 119.13,259.09 118.94,257.61" speed="5.56"/>
   </edge>
   <edge function="internal" id=":1052801523_6">
      <lane allow="delivery bicycle pedestrian" id=":1052801523_6_0" index="0" length="5.42" shape="114.65,258.36 115.91,259.27 117.05,259.46 118.06,258.90 118.94,257.61" speed="5.56"/>
   </edge>
   <edge function="internal" id=":1052801523_7">
      <lane allow="delivery bicycle pedestrian" id=":1052801523_7_0" index="0" length="9.78" shape="114.65,258.36 121.54,265.30" speed="5.56"/>
   </edge>
   <edge function="internal" id=":1052801523_8">
      <lane allow="delivery bicycle pedestrian" id=":1052801523_8_0" index="0" length="4.82" shape="114.65,258.36 114.96,259.81 114.69,260.69 113.82,261.00 112.35,260.73" speed="5.56"/>
   </edge>
   <edge function="internal" id=":1076169316_0">
      <lane disallow="tram rail_urban rail rail_electric ship" id=":1076169316_0_0" index="0" length="4.82" shape="829.70,109.47 831.19,109.52 831.98,110.00 832.06,110.92 831.44,112.27" speed="13.89"/>
   </edge>
   <edge function="internal" id=":1214980807_0">
      <lane allow="delivery bicycle pedestrian" id=":1214980807_0_0" index="0" length="0.13" shape="606.30,272.20 606.21,272.28" speed="5.56"/>
   </edge>
   <edge function="internal" id=":1214980807_1">
      <lane allow="delivery bicycle pedestrian" id=":1214980807_1_0" index="0" length="2.41" shape="606.30,272.20 604.83,272.40 603.97,272.06" speed="5.56"/>
   </edge>
   <edge function="internal" id=":1214980807_4">
      <lane id=":1214980807_4_0" index="0" length="2.41" shape="603.97,272.06 603.73,271.17 604.11,269.73" speed="5.56"/>
   </edge>
   <edge function="internal" id=":1214980807_2">
      <lane allow="delivery bicycle pedestrian" id=":1214980807_2_0" index="0" length="0.39" shape="603.83,270.00 604.11,269.73" speed="5.56"/>
   </edge>
   <edge function="internal" id=":1214980807_3">
      <lane allow="delivery bicycle pedestrian" id=":1214980807_3_0" index="0" length="2.41" shape="603.83,270.00 605.28,269.68 606.16,269.95" speed="5.56"/>
   </edge>
   <edge function="internal" id=":1214980807_5">
      <lane id=":1214980807_5_0" index="0" length="2.41" shape="606.16,269.95 606.47,270.82 606.21,272.28" speed="5.56"/>
   </edge>
   <edge function="internal" id=":1214980847_0">
      <lane allow="delivery bicycle pedestrian" id=":1214980847_0_0" index="0" length="4.82" shape="706.96,220.70 707.49,222.09 707.35,223.00 706.53,223.44 705.05,223.39" speed="5.56"/>
   </edge>
   <edge function="internal" id=":1214980855_0">
      <lane disallow="tram rail_urban rail rail_electric ship" id=":1214980855_0_0" index="0" length="9.41" shape="600.21,282.79 593.57,276.12" speed="13.89"/>
   </edge>
   <edge function="internal" id=":1214980855_1">
      <lane allow="delivery bicycle pedestrian" id=":1214980855_1_0" index="0" length="5.10" shape="600.21,282.79 598.58,280.55 598.05,278.29" speed="9.72"/>
   </edge>
   <edge function="internal" id=":1214980855_2">
      <lane disallow="tram rail_urban rail rail_electric ship" id=":1214980855_2_0" index="0" length="2.41" shape="600.21,282.79 599.94,281.33 600.24,280.46" speed="13.89"/>
   </edge>
   <edge function="internal" id=":1214980855_9">
      <lane id=":1214980855_9_0" index="0" length="5.19" shape="598.05,278.29 598.61,276.01 600.28,273.71" speed="9.72"/>
   </edge>
   <edge function="internal" id=":1214980855_10">
      <lane id=":1214980855_10_0" index="0" length="2.41" shape="600.24,280.46 601.12,280.17 602.57,280.48" speed="13.89"/>
   </edge>
   <edge function="internal" id=":1214980855_3">
      <lane disallow="tram rail_urban rail rail_electric ship" id=":1214980855_3_0" index="0" length="5.09" shape="602.66,275.99 601.82,277.14 601.53,278.27 601.78,279.38 602.57,280.48" speed="9.72"/>
   </edge>
   <edge function="internal" id=":1214980855_4">
      <lane disallow="tram rail_urban rail rail_electric ship" id=":1214980855_4_0" index="0" length="10.40" shape="602.66,275.99 600.41,277.75 598.15,278.36 595.87,277.81 593.57,276.12" speed="9.72"/>
   </edge>
   <edge function="internal" id=":1214980855_5">
      <lane allow="delivery bicycle pedestrian" id=":1214980855_5_0" index="0" length="4.82" shape="602.66,275.99 601.21,276.31 600.33,276.04 600.01,275.17 600.28,273.71" speed="5.56"/>
   </edge>
   <edge function="internal" id=":1214980855_6">
      <lane allow="delivery bicycle pedestrian" id=":1214980855_6_0" index="0" length="5.02" shape="595.89,273.77 597.00,274.59 598.10,274.85 599.19,274.56 600.28,273.71" speed="9.72"/>
   </edge>
   <edge function="internal" id=":1214980855_7">