<?xml version="1.0" encoding="utf-8"?><!-- generated on 10/11/17 17:52:58 by SUMO polyconvert Version 0.25.0
<?xml version="1.0" encoding="UTF-8"?>

<configuration xmlns:xsi="http://www.w3.org/2001/XMLSchema-instance" xsi:noNamespaceSchemaLocation="http://sumo.dlr.de/xsd/polyconvertConfiguration.xsd">

    <input>
        <net-file value="FR_IGNord_industrial_800.net.xml"/>
        <osm-files value="FR_IGNord_industrial_800.osm"/>
        <type-file value="osmPolyconvert.typ.xml"/>
    </input>

    <output>
        <output-file value="FR_IGNord_industrial_800.poly.xml"/>
    </output>

    <projection>
        <proj.utm value="true"/>
    </projection>

    <processing>
        <poi-layer-offset value="5"/>
    </processing>

</configuration>
-->
<additional>
   <location convBoundary="-7.40,-3.58,867.95,861.23" netOffset="-413845.56,-5319707.41" origBoundary="7.844302,48.024900,7.855993,48.032599" projParameter="+proj=utm +zone=32 +ellps=WGS84 +datum=WGS84 +units=m +no_defs"/>
   <poly color="red" fill="1" id="105495278" layer="-1.00" shape="753.64,28.29 744.80,11.61 753.95,6.78 762.79,23.46 753.64,28.29" type="building"/>
   <poly color="red" fill="1" id="105495279" layer="-1.00" shape="590.62,24.40 596.37,21.28 590.62,24.40" type="building"/>
   <poly color="red" fill="1" id="105495285" layer="-1.00" shape="753.82,85.20 744.78,70.58 749.82,67.47 756.55,78.36 755.60,78.95 757.91,82.67 753.82,85.20" type="building"/>
   <poly color="red" fill="1" id="105495291" layer="-1.00" shape="793.68,245.45 800.07,237.11 811.05,245.48 804.65,253.81 793.68,245.45" type="building"/>
   <poly color="red" fill="1" id="105495292" layer="-1.00" shape="507.90,151.74 494.71,138.81 493.97,139.56 491.06,142.52 504.25,155.44 507.90,151.74" type="building"/>
   <poly color="red" fill="1" id="105495296" layer="-1.00" shape="617.22,143.57 604.31,130.03 606.23,128.21 593.48,114.85 603.54,105.32 597.37,98.87 599.53,96.81 596.14,93.26 611.90,78.32 651.17,119.51 648.93,121.63 652.83,125.72 650.92,127.54 654.86,131.69 632.54,152.84 628.64,148.74 627.00,150.30 618.99,141.89 617.22,143.57" type="building"/>
   <poly color="red" fill="1" id="105495310" layer="-1.00" shape="469.97,138.30 476.79,131.80 482.86,138.14 476.04,144.63 469.97,138.30" type="building"/>
   <poly color="red" fill="0" id="105495311" layer="-1.00" shape="674.61,24.54 663.20,30.30" type="building"/>
   <poly color="red" fill="1" id="105495316" layer="-1.00" shape="723.28,207.44 718.37,214.39 714.52,219.84 697.50,243.91 701.68,246.85 727.47,210.38 723.28,207.44" type="building"/>
   <poly color="red" fill="1" id="105495323" layer="-1.00" shape="733.06,49.08 729.45,41.60 736.04,38.42 739.67,45.89 733.06,49.08" type="building"/>
   <poly color="red" fill="1" id="105495325" layer="-1.00" shape="772.97,35.56 763.39,18.06 800.88,-2.34 803.36,2.20 798.30,4.95 807.74,22.19 799.49,26.68 797.14,22.40 772.97,35.56" type="building"/>
   <poly color="red" fill="1" id="105495327" layer="-1.00" shape="700.02,328.73 721.80,343.76 752.60,299.41 757.81,303.01 761.30,297.97 756.10,294.38 759.65,289.25 737.88,274.22 700.02,328.73" type="building"/>
   <poly color="red" fill="1" id="105495328" layer="-1.00" shape="674.44,222.76 682.08,212.99 690.57,218.92 683.48,228.61 674.44,222.76" type="building"/>
   <poly color="red" fill="1" id="105495330" layer="-1.00" shape="688.76,306.53 677.65,298.72 678.95,296.82 641.47,269.70 646.99,261.89 649.71,263.81 661.28,247.44 660.62,246.98 661.46,245.79 662.35,244.53 653.08,238.01 663.12,223.80 679.39,235.23 681.30,232.52 697.50,243.91 701.68,246.85 718.40,258.59 700.53,283.85 703.38,285.85 688.76,306.53" type="building"/>
   <poly color="red" fill="1" id="105495339" layer="-1.00" shape="729.29,39.40 725.94,33.09 727.05,32.50 731.53,30.14 734.88,36.46 729.29,39.40" type="building"/>
   <poly color="red" fill="1" id="105495345" layer="-1.00" shape="528.99,146.48 523.22,138.97 528.46,134.96 534.24,142.48 528.99,146.48" type="building"/>
   <poly color="red" fill="1" id="105495349" layer="-1.00" shape="787.16,58.60 780.47,47.76 831.23,16.63 837.92,27.48 787.16,58.60" type="building"/>
   <poly color="red" fill="1" id="105495355" layer="-1.00" shape="722.29,23.55 733.56,17.59 738.33,26.56 731.53,30.14 727.05,32.50 722.29,23.55" type="building"/>
   <poly color="red" fill="1" id="105495360" layer="-1.00" shape="741.39,220.73 734.93,216.84 734.91,215.64 727.47,210.38 723.28,207.44 718.01,203.67 738.29,175.85 757.11,188.19 752.20,194.45 752.63,196.43 746.93,203.50 747.39,207.08 750.43,209.83 741.39,220.73" type="building"/>
   <poly color="red" fill="0" id="105495364" layer="-1.00" shape="598.04,13.93 615.70,4.72 613.39,0.32 615.37,-0.71" type="building"/>
   <poly color="red" fill="1" id="105495368" layer="-1.00" shape="462.19,131.73 452.75,122.33 458.57,116.51 468.02,125.91 462.19,131.73" type="building"/>
   <poly color="red" fill="1" id="105495370" layer="-1.00" shape="829.58,320.34 812.45,344.74 801.94,337.41 825.14,304.37 835.65,311.70 829.58,320.34" type="building"/>
   <poly color="red" fill="1" id="105495375" layer="-1.00" shape="652.69,180.91 634.62,162.82 647.75,149.79 665.82,167.87 652.69,180.91" type="building"/>
   <poly color="red" fill="1" id="105495376" layer="-1.00" shape="779.43,284.50 785.36,276.62 789.21,279.50 791.80,281.44 785.87,289.32 779.43,284.50" type="building"/>
   <poly color="red" fill="1" id="105495377" layer="-1.00" shape="508.82,24.50 503.88,15.11 511.24,11.25 506.51,4.27 521.83,7.00 524.17,11.55 522.70,12.22 533.47,31.06 524.68,36.08 524.27,35.37 515.89,20.03 508.82,24.50" type="building"/>
   <poly color="red" fill="1" id="105495383" layer="-1.00" shape="739.27,57.09 743.67,64.82 747.09,62.89 747.34,63.33 753.68,59.73 749.03,51.57 739.27,57.09" type="building"/>
   <poly color="red" fill="1" id="105495389" layer="-1.00" shape="860.96,318.24 860.28,328.89 836.85,312.54 842.29,295.20 847.34,279.11 851.76,266.89 858.08,312.78 856.82,317.02 860.96,318.24" type="building"/>
   <poly color="red" fill="1" id="105495395" layer="-1.00" shape="800.16,264.95 789.21,279.50 785.36,276.62 775.99,269.60 786.94,255.06 800.16,264.95" type="building"/>
   <poly color="red" fill="1" id="105495427" layer="-1.00" shape="575.32,227.81 564.06,216.29 578.93,201.84 551.26,173.56 560.55,164.53 564.14,168.21 568.09,164.36 589.01,185.75 615.93,159.58 612.92,156.51 611.41,157.97 607.32,153.78 609.05,152.09 606.15,149.12 611.39,144.03 668.65,202.57 642.35,228.14 620.96,206.27 610.35,216.60 619.84,226.31 605.41,240.34 584.46,218.92 575.32,227.81" type="building"/>
   <poly color="red" fill="1" id="105495434" layer="-1.00" shape="690.22,223.48 693.96,218.36 704.29,225.87 700.55,230.99 690.22,223.48" type="building"/>
   <poly color="red" fill="1" id="105495435" layer="-1.00" shape="756.19,140.97 751.85,144.41 740.09,129.62 753.94,118.65 765.71,133.44 764.51,134.39 756.19,140.97" type="building"/>
   <poly color="red" fill="1" id="105495443" layer="-1.00" shape="781.47,367.24 796.26,346.25 807.95,354.44 793.15,375.43 781.47,367.24" type="building"/>
   <poly color="red" fill="1" id="105495445" layer="-1.00" shape="667.98,130.07 639.09,79.47 661.92,66.50 690.82,117.10 667.98,130.07" type="building"/>
   <poly color="red" fill="1" id="105495451" layer="-1.00" shape="807.12,9.13 803.36,2.20 800.88,-2.34 809.81,5.04 810.91,7.22 807.12,9.13" type="building"/>
   <poly color="red" fill="1" id="105495455" layer="-1.00" shape="495.06,133.42 495.56,132.91 498.08,135.39 494.71,138.81 493.97,139.56 491.43,137.09 495.06,133.42" type="building"/>
   <poly color="red" fill="1" id="105495461" layer="-1.00" shape="637.74,274.65 634.27,278.05 633.98,277.75 630.56,281.09 625.74,276.17 629.11,272.89 628.08,271.83 624.71,275.12 621.07,271.40 620.66,271.81 618.56,269.67 621.73,266.58 619.62,264.42 623.76,260.38 631.58,268.36 629.89,270.02 630.96,271.11 632.65,269.45 637.74,274.65" type="building"/>
   <poly color="red" fill="1" id="105495463" layer="-1.00" shape="769.93,54.85 777.53,50.43 784.27,61.31 756.55,78.36 749.82,67.47 760.12,61.14 764.91,58.19 769.93,54.85" type="building"/>
   <poly color="red" fill="1" id="105495469" layer="-1.00" shape="730.36,228.17 735.95,220.09 744.42,225.91 738.83,233.99 730.36,228.17" type="building"/>
   <poly color="red" fill="1" id="105495483" layer="-1.00" shape="690.44,46.59 695.39,56.54 717.99,45.34 713.03,35.39 690.44,46.59" type="building"/>
   <poly color="red" fill="1" id="105495487" layer="-1.00" shape="681.50,50.67 675.97,53.26 676.28,53.92 672.77,55.57 677.02,64.59 682.17,62.18 683.86,65.75 687.76,63.94 681.50,50.67" type="building"/>
   <poly color="red" fill="1" id="105918564" layer="-1.00" shape="395.80,370.97 387.95,386.44 361.31,373.01 372.52,350.89 388.54,358.97 386.29,363.41 396.92,368.76 395.80,370.97" type="building"/>
   <poly color="red" fill="1" id="105918597" layer="-1.00" shape="279.99,345.86 279.57,333.60 314.79,265.53 326.86,248.82 360.98,266.02 311.24,360.98 279.99,345.86" type="building"/>
   <poly color="red" fill="1" id="105918602" layer="-1.00" shape="223.11,223.44 228.46,212.95 240.15,218.89 249.67,200.23 255.10,189.61 265.41,194.85 245.11,234.59 223.11,223.44" type="building"/>
   <poly color="red" fill="1" id="105918658" layer="-1.00" shape="-1.96,30.95" type="building"/>
   <poly color="red" fill="1" id="105918665" layer="-1.00" shape="366.63,315.31 402.58,334.03 407.99,323.71 372.03,304.99 366.63,315.31" type="building"/>
   <poly color="red" fill="1" id="105918736" layer="-1.00" shape="382.94,341.76 385.58,336.81 385.04,336.53 387.62,331.71 414.90,346.23 409.68,355.99 382.94,341.76" type="building"/>
   <poly color="red" fill="1" id="105918741" layer="-1.00" shape="375.35,301.88 381.20,285.12 394.74,289.82 388.90,306.58 375.35,301.88" type="building"/>
   <poly color="red" fill="1" id="105918759" layer="-1.00" shape="259.22,239.61 275.11,208.00 284.42,212.66 268.53,244.26 259.22,239.61" type="building"/>
   <poly color="red" fill="1" id="123631126" layer="-1.00" shape="33.82,500.27 44.65,506.57 42.38,510.46 53.09,516.68 48.68,524.20 42.11,520.38 37.52,528.21 28.27,522.83 33.14,514.52 27.43,511.19 33.82,500.27" type="building"/>
   <poly color="red" fill="1" id="123631132" layer="-1.00" shape="144.57,790.87 215.88,825.77 223.24,810.82 234.26,816.21 213.48,858.41 131.15,818.11 144.57,790.87" type="building"/>
   <poly color="red" fill="1" id="123631134" layer="-1.00" shape="184.12,758.02 272.64,803.60 323.25,705.93 289.43,688.51 274.64,717.05 197.45,677.29 185.63,700.08 180.74,697.56 175.90,706.92 185.99,712.11 177.43,728.64 194.73,737.54 184.12,758.02" type="building"/>
   <poly color="red" fill="1" id="123631145" layer="-1.00" shape="73.87,852.62 99.31,854.62 89.91,857.03 85.11,847.61 73.87,852.62" type="building"/>
   <poly color="red" fill="1" id="123631147" layer="-1.00" shape="103.73,534.66 117.09,542.49 101.77,568.49 93.61,563.72 96.33,559.10 91.12,556.05 103.73,534.66" type="building"/>
   <poly color="red" fill="1" id="123631156" layer="-1.00" shape="404.80,605.46 424.62,615.52 442.83,579.89 423.02,569.81 404.80,605.46" type="building"/>
   <poly color="184,184,179" fill="1" id="123631158" layer="-1.00" shape="47.50,489.48 164.15,550.08 238.12,401.02 234.06,398.54 208.02,449.71 193.92,443.08 169.49,492.20 149.23,482.18 156.02,468.07 144.36,461.97 172.62,407.68 164.90,403.23 135.98,459.86 75.44,434.61 51.11,482.40 47.50,489.48" type="parking"/>
   <poly color="237,199,199" fill="1" id="123631161" layer="-1.00" shape="45.70,579.61 68.63,593.20 61.96,604.38 39.03,590.80 45.70,579.61" type="amenity"/>
   <poly color="red" fill="1" id="123631161#1" layer="-1.00" shape="45.70,579.61 68.63,593.20 61.96,604.38 39.03,590.80 45.70,579.61" type="building"/>
   <poly color="red" fill="1" id="123631163" layer="-1.00" shape="222.18,660.81 244.70,672.22 267.60,625.60 245.04,614.78 242.55,620.50 222.18,660.81" type="building"/>
   <poly color="red" fill="1" id="123631165" layer="-1.00" shape="73.79,524.58 95.29,537.26 76.59,568.78 55.09,556.11 73.79,524.58" type="building"/>
   <poly color="red" fill="1" id="123631167" layer="-1.00" shape="9.73,516.82 44.03,537.57 24.94,568.92 3.43,555.90 -4.11,568.29 -0.42,516.73 7.03,521.24 9.73,516.82" type="building"/>
   <poly color="red" fill="1" id="123631169" layer="-1.00" shape="194.23,650.41 220.72,663.71 222.18,660.81 242.55,620.50 216.07,607.20 194.23,650.41" type="building"/>
   <poly color="184,184,179" fill="1" id="123632897" layer="-1.00" shape="183.32,371.44 211.53,383.93 234.59,332.13 221.10,326.17 205.41,361.41 190.68,354.89 183.32,371.44" type="parking"/>
   <poly color="red" fill="1" id="123632898" layer="-1.00" shape="147.43,319.93 156.69,323.98 154.44,328.15 159.79,330.32 162.71,325.48 164.39,326.17 166.93,327.21 168.70,331.92 180.17,336.34 193.34,313.46 180.11,305.83 175.74,307.89 172.71,306.13 174.38,302.77 169.73,300.05 169.26,302.61 165.51,301.33 170.41,291.67 163.05,288.14 147.43,319.93" type="building"/>
   <poly color="red" fill="1" id="123632900" layer="-1.00" shape="145.38,439.73 129.73,432.05 134.81,421.76 127.51,418.18 119.18,435.05 100.73,426.00 108.36,410.56 92.63,402.84 101.77,384.35 119.72,393.16 141.99,348.06 150.65,352.39 158.51,356.16 150.00,373.41 164.04,380.29 166.72,374.87 160.81,371.97 175.10,343.03 191.11,350.89 176.26,380.96 169.58,377.69 167.45,382.00 180.08,388.20 189.64,392.89 182.13,408.09 165.13,399.75 145.38,439.73" type="building"/>
   <poly color="184,184,179" fill="1" id="123632901" layer="-1.00" shape="103.20,360.31 127.52,366.29 145.22,332.73 140.90,327.89 133.57,319.68 129.76,315.40 103.20,360.31" type="parking"/>
   <poly color="194,194,130" fill="1" id="123632902" layer="-3.00" shape="197.20,307.85 219.92,325.83 204.53,360.30 191.43,354.11 192.69,350.36 174.76,341.66 159.71,372.74 164.06,375.31 162.59,378.48 151.52,373.26 159.17,355.65 141.12,346.49 147.36,328.70 138.80,318.26 155.29,324.19 153.46,328.96 161.41,332.08 162.83,327.23 166.35,328.22 167.92,333.13 180.71,338.58 197.20,307.85" type="landuse"/>
   <poly color="194,194,130" fill="1" id="123632903" layer="-3.00" shape="100.35,382.46 89.88,404.16 105.98,411.08 99.02,426.73 115.96,436.05 110.94,448.09 73.79,431.86 43.56,491.78 79.63,510.83 58.75,515.87 45.35,509.25 47.37,504.08 33.27,497.51 20.81,519.63 3.08,511.91 83.02,373.95 100.35,382.46" type="landuse"/>
   <poly color="181,209,209" fill="1" id="126258348" layer="-4.00" shape="21.70,62.46" type="water"/>
   <poly color="red" fill="0" id="144886584" layer="-1.00" shape="-1.43,797.52 3.55,810.76" type="building"/>
   <poly color="red" fill="1" id="149204104" layer="-1.00" shape="785.67,771.17 805.25,778.96 795.01,804.56 784.07,800.21 789.38,786.94 780.73,783.50 785.67,771.17" type="building"/>
   <poly color="red" fill="1" id="149204532" layer="-1.00" shape="779.57,681.62 809.70,698.09 819.30,680.19 841.37,637.45 812.26,621.92 797.95,613.75 782.03,642.92 795.14,650.02 798.85,643.23 800.39,644.08 799.82,645.11 821.54,656.88 808.77,680.21 787.01,668.00 779.57,681.62" type="building"/>
   <poly color="red" fill="1" id="149204533" layer="-1.00" shape="712.74,489.62 686.36,520.51 721.18,550.07 724.42,546.28 750.80,568.67 773.87,541.67 742.17,514.77 744.49,512.06 735.35,504.30 733.04,507.02 724.16,499.48 712.74,489.62" type="building"/>
   <poly color="red" fill="1" id="149204535" layer="-1.00" shape="804.21,566.13 790.81,584.64 802.98,593.40 813.11,579.41 816.37,574.89 804.21,566.13" type="building"/>
   <poly color="red" fill="1" id="149204536" layer="-1.00" shape="654.52,447.82 675.66,425.42 700.85,449.05 701.95,450.08 680.81,472.49 654.52,447.82" type="building"/>
   <poly color="red" fill="1" id="149204537" layer="-1.00" shape="707.99,410.97 723.22,425.27 718.05,430.73 721.74,434.19 707.62,449.16 703.97,445.74 700.85,449.05 685.58,434.72 707.99,410.97" type="building"/>
   <poly color="red" fill="1" id="149206754" layer="-1.00" shape="655.89,595.39 682.37,549.76 639.24,524.89 602.18,503.52 569.98,559.03 587.30,569.01 589.13,565.84 591.24,567.06 592.51,564.88 590.40,563.66 593.02,559.14 655.89,595.39" type="building"/>
   <poly color="red" fill="0" id="149206756" layer="-1.00" shape="575.56,825.81 615.66,842.53" type="building"/>
   <poly color="red" fill="1" id="149206759" layer="-1.00" shape="580.03,807.37 622.39,824.64 644.78,770.07 606.64,754.50 598.15,775.18 593.94,773.47 580.03,807.37" type="building"/>
   <poly color="red" fill="1" id="149206764" layer="-1.00" shape="581.86,675.39 598.90,686.06 595.58,691.35 622.56,708.24 650.30,664.21 645.44,661.17 660.41,637.41 621.24,612.88 581.86,675.39" type="building"/>
   <poly color="red" fill="1" id="149206765" layer="-1.00" shape="714.52,637.19 712.60,640.42 738.52,655.75 740.61,652.24 741.71,650.38 745.77,652.78 762.03,625.43 732.05,607.72 720.30,627.48 714.52,637.19" type="building"/>
   <poly color="red" fill="1" id="149206766" layer="-1.00" shape="656.23,755.50 744.38,804.76 781.01,739.61 766.40,731.46 771.18,722.96 764.46,719.22 769.15,710.89 707.70,676.56 703.11,684.74 697.70,681.72 656.23,755.50" type="building"/>
   <poly color="red" fill="1" id="149206774" layer="-1.00" shape="490.88,668.28 511.09,676.07 512.37,672.76 532.29,680.44 536.87,668.60 513.22,659.49 512.02,662.59 495.55,656.24 490.88,668.28" type="building"/>
   <poly color="red" fill="1" id="149206778" layer="-1.00" shape="673.58,605.95 691.24,616.21 717.73,570.83 691.98,555.90 677.47,580.77 685.54,585.45 673.58,605.95" type="building"/>
   <poly color="red" fill="1" id="149206779" layer="-1.00" shape="535.39,357.15 542.74,355.25 550.16,383.77 520.83,391.36 515.68,371.59 537.66,365.91 535.39,357.15" type="building"/>
   <poly color="red" fill="1" id="149209581" layer="-1.00" shape="651.05,809.55 677.08,819.53 674.83,825.36 689.68,831.05 635.08,850.54 629.85,848.54 643.77,812.48 649.13,814.54 651.05,809.55" type="building"/>
   <poly color="red" fill="1" id="149210970" layer="-1.00" shape="349.73,842.17 357.51,826.91 368.19,832.32 360.42,847.58 349.73,842.17" type="building"/>
   <poly color="red" fill="1" id="149210972" layer="-1.00" shape="251.11,808.58 308.99,835.78 236.54,854.40 245.35,835.77 239.53,833.03 251.11,808.58" type="building"/>
   <poly color="red" fill="1" id="149210978" layer="-1.00" shape="322.90,856.18" type="building"/>
   <poly color="red" fill="1" id="149210980" layer="-1.00" shape="312.14,820.22 326.18,794.39 359.41,812.36 341.73,844.88 330.31,838.70 333.95,832.01 312.14,820.22" type="building"/>
   <poly color="red" fill="1" id="161937212" layer="-1.00" shape="104.90,670.83 125.96,637.77 136.96,644.73 115.91,677.79 104.90,670.83" type="building"/>
   <poly color="red" fill="1" id="161937218" layer="-1.00" shape="118.25,621.30 137.92,589.97 183.12,618.17 167.95,642.34 157.37,635.75 152.87,642.92 118.25,621.30" type="building"/>
   <poly color="red" fill="1" id="191213548" layer="-1.00" shape="421.47,0.52 427.10,5.99 407.07,26.48 432.27,50.97 460.68,21.91 421.47,0.52" type="building"/>
   <poly color="red" fill="1" id="192359361" layer="-1.00" shape="555.50,493.94 562.12,474.80 585.44,482.72 590.74,480.15 589.65,476.83 596.53,473.79 603.42,488.64 593.08,506.87 555.50,493.94" type="building"/>
   <poly color="red" fill="1" id="192359362" layer="-1.00" shape="251.74,576.98 258.31,564.67 270.70,571.23 264.14,583.56 251.74,576.98" type="building"/>
   <poly color="red" fill="1" id="192359363" layer="-1.00" shape="306.16,598.59 310.12,589.94 320.77,594.79 316.80,603.44 306.16,598.59" type="building"/>
   <poly color="red" fill="1" id="192359364" layer="-1.00" shape="544.26,526.28 553.05,500.56 563.30,504.03 554.51,529.76 544.26,526.28" type="building"/>
   <poly color="red" fill="1" id="192359365" layer="-1.00" shape="350.35,627.18 380.31,568.80 406.30,582.05 376.35,640.43 350.35,627.18" type="building"/>
   <poly color="red" fill="1" id="192359366" layer="-1.00" shape="391.68,753.17 402.25,758.73 405.25,753.06 394.68,747.50 391.68,753.17" type="building"/>
   <poly color="red" fill="1" id="192359367" layer="-1.00" shape="331.78,598.42 345.11,572.96 361.84,581.66 348.52,607.13 331.78,598.42" type="building"/>
   <poly color="red" fill="1" id="192359368" layer="-1.00" shape="255.87,557.07 272.74,525.89 289.31,534.80 272.44,565.98 255.87,557.07" type="building"/>
   <poly color="red" fill="1" id="192359370" layer="-1.00" shape="386.56,560.80 392.78,549.72 415.95,562.65 409.72,573.73 386.56,560.80" type="building"/>
   <poly color="red" fill="1" id="192359371" layer="-1.00" shape="337.27,568.36 331.57,578.78 316.69,570.71 340.39,527.29 355.28,535.37 337.27,568.36" type="building"/>
   <poly color="red" fill="1" id="192359372" layer="-1.00" shape="330.24,790.24 345.42,760.12 356.95,765.90 353.09,773.64 341.79,795.92 330.24,790.24" type="building"/>
   <poly color="red" fill="1" id="192359373" layer="-1.00" shape="391.17,730.39 400.28,735.16 403.78,728.51 408.81,731.15 413.33,722.57 399.20,715.16 391.17,730.39" type="building"/>
   <poly color="red" fill="1" id="192359374" layer="-1.00" shape="428.33,717.72 419.55,712.89 423.91,705.00 428.17,707.34 428.78,706.24 433.30,708.73 428.33,717.72" type="building"/>
   <poly color="red" fill="1" id="192359375" layer="-1.00" shape="351.60,739.36 361.42,720.77 398.51,740.26 394.68,747.50 391.68,753.17 388.68,758.85 351.60,739.36" type="building"/>
   <poly color="red" fill="1" id="192359376" layer="-1.00" shape="345.11,572.96 337.27,568.36 355.28,535.37 355.77,533.03 382.41,548.19 363.96,583.10 361.84,581.66 345.11,572.96" type="building"/>
   <poly color="red" fill="1" id="192359377" layer="-1.00" shape="459.91,556.66 453.19,569.74 437.91,561.94 444.62,548.87 446.70,549.92 459.91,556.66" type="building"/>
   <poly color="red" fill="1" id="192359378" layer="-1.00" shape="341.79,795.92 346.05,798.07 348.34,793.56 365.68,802.31 367.26,799.19 378.20,804.71 385.64,790.05 353.09,773.64 341.79,795.92" type="building"/>
   <poly color="red" fill="1" id="192359825" layer="-1.00" shape="185.02,130.61 159.35,118.09 165.67,105.19 191.35,117.71 185.02,130.61" type="building"/>
   <poly color="red" fill="1" id="192360169" layer="-1.00" shape="157.10,276.60 187.77,218.23 198.06,223.60 180.88,256.30 189.40,260.75 185.99,267.24 188.65,268.62 182.54,280.24 180.52,279.18 176.55,286.74 157.10,276.60" type="building"/>
   <poly color="red" fill="1" id="192360170" layer="-1.00" shape="447.48,0.74 465.37,4.62 447.48,0.74" type="building"/>
   <poly color="red" fill="1" id="192360172" layer="-1.00" shape="45.82,289.31 42.82,293.11 67.01,312.21 56.15,325.87 33.45,354.46 -3.96,287.63 -7.40,284.91 -3.66,280.20 -6.08,255.20 -1.03,259.19 20.85,231.64 30.79,239.49 44.69,221.97 87.29,255.61 79.91,264.90 97.06,278.44 75.52,305.57 84.93,313.00 76.11,324.10 71.65,320.57 76.95,313.89 45.82,289.31" type="building"/>
   <poly color="red" fill="1" id="192360181" layer="-1.00" shape="195.34,293.39 206.42,271.07 221.40,278.45 210.30,300.78 195.34,293.39" type="building"/>
   <poly color="red" fill="1" id="192360184" layer="-1.00" shape="409.71,52.44 397.08,40.69 407.81,29.67 419.67,42.06 409.71,52.44" type="building"/>
   <poly color="red" fill="1" id="192360192" layer="-1.00" shape="34.01,273.10 22.72,262.40 29.37,254.53 41.69,263.63 34.01,273.10" type="building"/>
   <poly color="red" fill="1" id="192360198" layer="-1.00" shape="211.50,263.03 220.42,244.73 225.99,247.43 217.07,265.73 211.50,263.03" type="building"/>
   <poly color="red" fill="1" id="192360199" layer="-1.00" shape="411.42,68.12 421.90,57.38 436.48,71.54 426.00,82.27 411.42,68.12" type="building"/>
   <poly color="red" fill="0" id="193849337" layer="-1.00" shape="858.38,-3.58 856.01,-2.16" type="building"/>
   <poly color="red" fill="1" id="196715676" layer="-1.00" shape="5.81,642.01 23.68,612.70 -0.85,597.84 5.81,642.01" type="building"/>
   <poly color="red" fill="1" id="196715890" layer="-1.00" shape="19.56,652.16 37.23,622.59 23.80,614.61 6.13,644.19 19.56,652.16" type="building"/>
   <poly color="red" fill="1" id="196715892" layer="-1.00" shape="32.45,657.56 44.83,637.60 34.45,631.21 22.07,651.16 32.45,657.56" type="building"/>
   <poly color="red" fill="1" id="196716206" layer="-1.00" shape="17.47,751.90 7.49,745.82 21.43,723.13 31.40,729.21 17.47,751.90" type="building"/>
   <poly color="red" fill="1" id="196716207" layer="-1.00" shape="35.09,726.91 39.91,719.25 18.78,706.01 13.95,713.68 35.09,726.91" type="building"/>
   <poly color="red" fill="1" id="196716208" layer="-1.00" shape="117.40,640.74 122.38,632.84 93.00,614.38 88.02,622.27 117.40,640.74" type="building"/>
   <poly color="red" fill="1" id="196716209" layer="-1.00" shape="44.20,721.19 70.99,737.79 61.87,752.43 35.08,735.83 44.20,721.19" type="building"/>
   <poly color="red" fill="1" id="196716210" layer="-1.00" shape="38.27,699.34 57.10,670.25 44.51,662.16 25.70,691.26 38.27,699.34" type="building"/>
   <poly color="red" fill="1" id="196716211" layer="-1.00" shape="92.45,710.89 116.38,673.69 95.29,660.20 71.36,697.41 92.45,710.89" type="building"/>
   <poly color="red" fill="1" id="210655565" layer="-1.00" shape="685.09,180.06 703.19,155.30 731.94,176.18 706.37,211.18 700.64,207.03 717.44,184.04 702.40,173.11 693.09,185.87 685.09,180.06" type="building"/>
   <poly color="red" fill="1" id="210656265" layer="-1.00" shape="691.56,18.07 711.83,7.26 695.26,0.71 697.51,4.91 687.40,10.29 691.56,18.07" type="building"/>
   <poly color="red" fill="0" id="210657648" layer="-1.00" shape="865.14,537.35 862.83,540.46 843.04,525.86 842.82,526.15 833.62,538.55 866.05,562.47" type="building"/>
   <poly color="red" fill="1" id="218423010" layer="-1.00" shape="577.43,322.96 595.59,305.53 607.20,317.56 610.59,314.29 617.98,321.93 602.91,336.40 605.13,338.70 598.68,344.90 596.23,342.37 592.56,345.89 585.19,338.27 588.84,334.77 577.43,322.96" type="building"/>
   <poly color="184,184,179" fill="1" id="220494623" layer="-1.00" shape="275.53,49.11 300.54,61.89 319.26,68.38 337.91,56.68 340.34,50.84 289.31,23.37 275.53,49.11" type="parking"/>
   <poly color="184,184,179" fill="1" id="220494624" layer="-1.00" shape="377.89,149.11 392.99,116.65 348.26,94.87 362.75,65.06 388.80,87.26 415.24,116.65 402.97,139.45 393.49,154.88 377.89,149.11" type="parking"/>
   <poly color="red" fill="1" id="220495895" layer="-1.00" shape="86.25,135.54 83.94,133.61 80.95,133.22 78.22,134.51 76.63,137.07 76.67,140.07 78.35,142.58 81.11,143.79 84.09,143.31 86.34,141.31 87.14,138.41 86.25,135.54" type="building"/>
   <poly color="red" fill="1" id="220495896" layer="-1.00" shape="70.81,133.27 66.59,129.73 61.12,129.03 56.13,131.40 53.22,136.07 53.30,141.57 56.35,146.15 61.41,148.35 66.86,147.48 70.97,143.82 72.45,138.53 70.81,133.27" type="building"/>
   <poly color="red" fill="1" id="220495898" layer="-1.00" shape="119.16,83.63 115.68,80.71 111.17,80.14 107.06,82.09 104.66,85.94 104.72,90.47 107.25,94.25 111.42,96.08 115.91,95.35 119.30,92.33 120.51,87.96 119.16,83.63" type="building"/>
   <poly color="red" fill="1" id="220495900" layer="-1.00" shape="810.23,407.35 808.70,410.47 825.50,418.68 831.56,406.38 827.54,404.42 823.05,413.59 810.23,407.35" type="building"/>
   <poly color="red" fill="1" id="220495912" layer="-1.00" shape="29.89,74.75 40.63,79.63 47.80,63.93 37.06,59.06 29.89,74.75" type="building"/>
   <poly color="red" fill="1" id="220495917" layer="-1.00" shape="0.33,121.16 7.99,124.81 1.07,139.23 10.31,143.64 28.38,105.95 11.48,97.90 0.33,121.16" type="building"/>
   <poly color="red" fill="1" id="220495923" layer="-1.00" shape="813.17,431.51 817.00,433.90 823.63,423.35 819.80,420.96 813.17,431.51" type="building"/>
   <poly color="red" fill="1" id="220495926" layer="-1.00" shape="167.19,558.51 159.99,570.27 192.88,590.28 200.08,578.52 167.19,558.51" type="building"/>
   <poly color="red" fill="1" id="220495929" layer="-1.00" shape="758.83,422.81 767.02,429.74 769.59,426.72 773.10,429.69 783.00,418.04 771.31,408.15 768.08,411.96 765.67,409.92 761.39,414.94 763.80,416.97 758.83,422.81" type="building"/>
   <poly color="red" fill="1" id="220495931" layer="-1.00" shape="150.17,588.17 189.32,611.94 197.56,598.47 158.41,574.69 150.17,588.17" type="building"/>
   <poly color="red" fill="1" id="220495946" layer="-1.00" shape="56.95,51.56 47.46,70.42 49.81,71.60 44.25,82.63 52.73,86.87 58.28,75.83 81.28,87.32 69.65,110.43 83.58,117.39 104.69,75.42 56.95,51.56" type="building"/>
   <poly color="red" fill="1" id="232283267" layer="-1.00" shape="44.51,849.90 39.67,846.80 58.80,817.06 63.65,820.17 44.51,849.90" type="building"/>
   <poly color="red" fill="1" id="232283268" layer="-1.00" shape="28.89,861.04" type="building"/>
   <poly color="red" fill="1" id="232283269" layer="-1.00" shape="43.79,857.93 48.51,861.23 51.59,856.85 46.86,853.55 43.79,857.93" type="building"/>
   <poly color="237,199,199" fill="1" id="232283270" layer="-1.00" shape="13.92,833.69 31.56,806.45 44.84,815.00 27.20,842.24 13.92,833.69" type="amenity"/>
   <poly color="red" fill="1" id="232283270#1" layer="-1.00" shape="13.92,833.69 31.56,806.45 44.84,815.00 27.20,842.24 13.92,833.69" type="building"/>
   <poly color="red" fill="1" id="232283272" layer="-1.00" shape="61.68,817.56 38.89,803.42 42.57,797.53 65.36,811.67 61.68,817.56" type="building"/>
   <poly color="237,199,199" fill="1" id="232283273" layer="-1.00" shape="53.15,855.55 44.51,849.90 63.65,820.17 65.19,821.13 72.47,825.73 53.15,855.55" type="amenity"/>
   <poly color="red" fill="1" id="232283273#1" layer="-1.00" shape="53.15,855.55 44.51,849.90 63.65,820.17 65.19,821.13 72.47,825.73 53.15,855.55" type="building"/>
   <poly color="237,199,199" fill="1" id="232283274" layer="-1.00" shape="65.36,811.67 69.67,814.26 65.19,821.13 72.47,825.73 79.04,814.70 45.42,792.97 42.57,797.53 65.36,811.67" type="amenity"/>
   <poly color="red" fill="1" id="232283274#1" layer="-1.00" shape="65.36,811.67 69.67,814.26 65.19,821.13 72.47,825.73 79.04,814.70 45.42,792.97 42.57,797.53 65.36,811.67" type="building"/>
   <poly color="red" fill="0" id="232283275" layer="-1.00" shape="6.84,840.14 39.35,861.00 28.89,861.04" type="building"/>