<?xml version="1.0" encoding="utf-8"?><!-- generated on 10/11/17 17:53:03 by SUMO netconvert Version 0.25.0
<?xml version="1.0" encoding="UTF-8"?>

<configuration xmlns:xsi="http://www.w3.org/2001/XMLSchema-instance" xsi:noNamespaceSchemaLocation="http://sumo.dlr.de/xsd/netconvertConfiguration.xsd">

    <input>
        <type-files value="osmNetconvert.typ.xml"/>
        <osm-files value="FR_Mooswald_urban_800.osm"/>
    </input>

    <output>
        <output-file value="FR_Mooswald_urban_800.net.xml"/>
    </output>

    <projection>
        <proj.utm value="true"/>
    </projection>

    <edge_removal>
        <remove-edges.by-type value="highway.track,highway.unsurfaced,highway.raceway,highway.bridleway,highway.path,highway.footway,highway.pedestrian,highway.cycleway,highway.step,highway.steps,highway.stairs,highway.bus_guideway,highway.ford,railway.rail,railway.tram,railway.light_rail,railway.subway,railway.preserved,railway.narrow_gauge,railway.monorail,railway.funicular"/>
    </edge_removal>

</configuration>
-->
<net version="0.25">
   <location convBoundary="0.00,0.00,860.38,862.83" netOffset="-411580.42,-5318382.81" origBoundary="7.814228,48.012709,7.825896,48.020393" projParameter="+proj=utm +zone=32 +ellps=WGS84 +datum=WGS84 +units=m +no_defs"/>
   <type allow="pedestrian" id="highway.bridleway" numLanes="1" oneway="1" priority="1" speed="2.78" width="2.00"/>
   <type allow="bus" id="highway.bus_guideway" numLanes="1" oneway="1" priority="1" speed="8.33"/>
   <type allow="bicycle" id="highway.cycleway" numLanes="1" oneway="0" priority="1" speed="5.56" width="1.00"/>
   <type allow="pedestrian" id="highway.footway" numLanes="1" oneway="1" priority="1" speed="8.33" width="2.00"/>
   <type allow="army" id="highway.ford" numLanes="1" oneway="0" priority="1" speed="2.78"/>
   <type disallow="tram rail_urban rail rail_electric ship" id="highway.living_street" numLanes="1" oneway="0" priority="3" speed="2.78"/>
   <type allow="private emergency authority army vip passenger hov taxi bus coach delivery truck trailer motorcycle evehicle custom1 custom2" id="highway.motorway" numLanes="2" oneway="1" priority="13" speed="44.44"/>
   <type allow="private emergency authority army vip passenger hov taxi bus coach delivery truck trailer motorcycle evehicle custom1 custom2" id="highway.motorway_link" numLanes="1" oneway="1" priority="12" speed="22.22"/>
   <type allow="bicycle pedestrian" id="highway.path" numLanes="1" oneway="1" priority="1" speed="2.78" width="2.00"/>
   <type allow="pedestrian" id="highway.pedestrian" numLanes="1" oneway="1" priority="1" speed="8.33" width="2.00"/>
   <type disallow="tram rail_urban rail rail_electric ship" id="highway.primary" numLanes="2" oneway="0" priority="9" speed="27.78"/>
   <type disallow="tram rail_urban rail rail_electric ship" id="highway.primary_link" numLanes="1" oneway="0" priority="8" speed="22.22"/>
   <type allow="vip" id="highway.raceway" numLanes="2" oneway="0" priority="14" speed="83.33"/>
   <type disallow="tram rail_urban rail rail_electric ship" id="highway.residential" numLanes="1" oneway="0" priority="4" speed="13.89"/>
   <type disallow="tram rail_urban rail rail_electric ship" id="highway.secondary" numLanes="2" oneway="0" priority="7" speed="27.78"/>
   <type disallow="tram rail_urban rail rail_electric ship" id="highway.secondary_link" numLanes="1" oneway="0" priority="6" speed="22.22"/>
   <type allow="delivery bicycle pedestrian" id="highway.service" numLanes="1" oneway="0" priority="2" speed="5.56"/>
   <type disallow="tram rail_urban rail rail_electric ship" id="highway.services" numLanes="1" oneway="0" priority="1" speed="8.33"/>
   <type allow="pedestrian" id="highway.stairs" numLanes="1" oneway="1" priority="1" speed="1.39" width="2.00"/>
   <type allow="pedestrian" id="highway.step" numLanes="1" oneway="1" priority="1" speed="1.39" width="2.00"/>
   <type allow="pedestrian" id="highway.steps" numLanes="1" oneway="1" priority="1" speed="1.39" width="2.00"/>
   <type disallow="tram rail_urban rail rail_electric ship" id="highway.tertiary" numLanes="1" oneway="0" priority="6" speed="22.22"/>
   <type disallow="tram rail_urban rail rail_electric ship" id="highway.tertiary_link" numLanes="1" oneway="0" priority="5" speed="22.22"/>
   <type disallow="tram rail_urban rail rail_electric ship" id="highway.track" numLanes="1" oneway="0" priority="1" speed="5.56"/>
   <type disallow="tram rail_urban rail rail_electric bicycle pedestrian ship" id="highway.trunk" numLanes="2" oneway="0" priority="11" speed="27.78"/>
   <type disallow="tram rail_urban rail rail_electric bicycle pedestrian ship" id="highway.trunk_link" numLanes="1" oneway="0" priority="10" speed="22.22"/>
   <type disallow="tram rail_urban rail rail_electric ship" id="highway.unclassified" numLanes="1" oneway="0" priority="5" speed="13.89"/>
   <type disallow="tram rail_urban rail rail_electric ship" id="highway.unsurfaced" numLanes="1" oneway="0" priority="1" speed="8.33"/>
   <type allow="rail_urban" id="railway.light_rail" numLanes="1" oneway="1" priority="15" speed="27.78"/>
   <type allow="rail" id="railway.preserved" numLanes="1" oneway="1" priority="15" speed="27.78"/>
   <type allow="rail rail_electric" id="railway.rail" numLanes="1" oneway="1" priority="15" speed="83.33"/>
   <type allow="rail_urban" id="railway.subway" numLanes="1" oneway="1" priority="15" speed="27.78"/>
   <type allow="tram" id="railway.tram" numLanes="1" oneway="1" priority="15" speed="13.89"/>
   <edge function="internal" id=":1279893296_0">
      <lane allow="delivery bicycle pedestrian" id=":1279893296_0_0" index="0" length="4.11" shape="714.75,37.08 712.31,33.78" speed="5.56"/>
   </edge>
   <edge function="internal" id=":1279893296_1">
      <lane allow="delivery bicycle pedestrian" id=":1279893296_1_0" index="0" length="3.74" shape="714.75,37.08 713.31,33.63" speed="5.56"/>
   </edge>
   <edge function="internal" id=":1279893296_2">
      <lane allow="delivery bicycle pedestrian" id=":1279893296_2_0" index="0" length="4.82" shape="714.75,37.08 714.88,35.60 715.41,34.85 716.33,34.82 717.65,35.51" speed="5.56"/>
   </edge>
   <edge function="internal" id=":1279893296_3">
      <lane allow="delivery bicycle pedestrian" id=":1279893296_3_0" index="0" length="2.77" shape="716.82,32.87 717.65,35.51" speed="5.56"/>
   </edge>
   <edge function="internal" id=":1279893296_4">
      <lane allow="delivery bicycle pedestrian" id=":1279893296_4_0" index="0" length="6.34" shape="716.82,32.87 716.22,34.54 715.27,35.24 713.96,34.99 712.31,33.78" speed="5.56"/>
   </edge>
   <edge function="internal" id=":1279893296_5">
      <lane allow="delivery bicycle pedestrian" id=":1279893296_5_0" index="0" length="5.25" shape="716.82,32.87 716.23,34.38 715.44,35.01 714.47,34.76 713.31,33.63" speed="5.56"/>
   </edge>
   <edge function="internal" id=":1279893296_6">
      <lane allow="delivery bicycle pedestrian" id=":1279893296_6_0" index="0" length="3.15" shape="713.61,30.49 713.31,33.63" speed="5.56"/>
   </edge>
   <edge function="internal" id=":1279893296_7">
      <lane allow="delivery bicycle pedestrian" id=":1279893296_7_0" index="0" length="6.44" shape="713.61,30.49 717.65,35.51" speed="5.56"/>
   </edge>
   <edge function="internal" id=":1279893296_8">
      <lane allow="delivery bicycle pedestrian" id=":1279893296_8_0" index="0" length="5.16" shape="713.61,30.49 714.52,31.80 714.60,32.79 713.86,33.45 712.31,33.78" speed="5.56"/>
   </edge>
   <edge function="internal" id=":1340086758_0">
      <lane disallow="tram rail_urban rail rail_electric ship" id=":1340086758_0_0" index="0" length="9.50" shape="324.23,808.03 317.07,801.79" speed="8.33"/>
   </edge>
   <edge function="internal" id=":1340086758_1">
      <lane allow="delivery bicycle pedestrian" id=":1340086758_1_0" index="0" length="5.23" shape="324.23,808.03 322.36,805.86 321.64,803.61" speed="6.95"/>
   </edge>
   <edge function="internal" id=":1340086758_2">
      <lane disallow="tram rail_urban rail rail_electric ship" id=":1340086758_2_0" index="0" length="2.41" shape="324.23,808.03 323.84,806.60 324.07,805.70" speed="8.33"/>
   </edge>
   <edge function="internal" id=":1340086758_9">
      <lane id=":1340086758_9_0" index="0" length="5.23" shape="321.64,803.61 322.10,801.31 323.72,798.93" speed="6.95"/>
   </edge>
   <edge function="internal" id=":1340086758_10">
      <lane id=":1340086758_10_0" index="0" length="2.41" shape="324.07,805.70 324.93,805.35 326.40,805.54" speed="8.33"/>
   </edge>
   <edge function="internal" id=":1340086758_3">
      <lane disallow="tram rail_urban rail rail_electric ship" id=":1340086758_3_0" index="0" length="5.03" shape="326.15,801.16 325.37,802.30 325.15,803.42 325.50,804.49 326.40,805.54" speed="6.95"/>
   </edge>
   <edge function="internal" id=":1340086758_4">
      <lane disallow="tram rail_urban rail rail_electric ship" id=":1340086758_4_0" index="0" length="10.33" shape="326.15,801.16 323.95,802.98 321.71,803.70 319.41,803.30 317.07,801.79" speed="6.95"/>
   </edge>
   <edge function="internal" id=":1340086758_5">
      <lane allow="delivery bicycle pedestrian" id=":1340086758_5_0" index="0" length="4.82" shape="326.15,801.16 324.71,801.52 323.82,801.26 323.49,800.40 323.72,798.93" speed="5.56"/>
   </edge>
   <edge function="internal" id=":1340086758_6">
      <lane allow="delivery bicycle pedestrian" id=":1340086758_6_0" index="0" length="5.11" shape="319.23,799.30 320.38,800.03 321.51,800.22 322.62,799.85 323.72,798.93" speed="6.95"/>
   </edge>
   <edge function="internal" id=":1340086758_7">
      <lane disallow="tram rail_urban rail rail_electric ship" id=":1340086758_7_0" index="0" length="9.50" shape="319.23,799.30 326.40,805.54" speed="8.33"/>
   </edge>
   <edge function="internal" id=":1340086758_8">
      <lane disallow="tram rail_urban rail rail_electric ship" id=":1340086758_8_0" index="0" length="2.41" shape="319.23,799.30 319.62,800.74 319.39,801.63" speed="8.33"/>
   </edge>
   <edge function="internal" id=":1340086758_11">
      <lane id=":1340086758_11_0" index="0" length="2.41" shape="319.39,801.63 318.54,801.98 317.07,801.79" speed="8.33"/>
   </edge>
   <edge function="internal" id=":1340086761_0">
      <lane allow="delivery bicycle pedestrian" id=":1340086761_0_0" index="0" length="4.82" shape="345.92,774.70 347.36,774.35 348.25,774.60 348.58,775.46 348.35,776.93" speed="5.56"/>
   </edge>
   <edge function="internal" id=":1340086774_0">
      <lane disallow="tram rail_urban rail rail_electric ship" id=":1340086774_0_0" index="0" length="9.50" shape="298.17,785.36 291.00,779.13" speed="8.33"/>
   </edge>
   <edge function="internal" id=":1340086774_1">
      <lane allow="delivery bicycle pedestrian" id=":1340086774_1_0" index="0" length="5.20" shape="298.17,785.36 296.30,783.20 295.59,780.97" speed="6.95"/>
   </edge>
   <edge function="internal" id=":1340086774_2">
      <lane disallow="tram rail_urban rail rail_electric ship" id=":1340086774_2_0" index="0" length="2.41" shape="298.17,785.36 297.78,783.93 298.01,783.03" speed="8.33"/>
   </edge>
   <edge function="internal" id=":1340086774_9">
      <lane id=":1340086774_9_0" index="0" length="5.20" shape="295.59,780.97 296.02,778.67 297.61,776.29" speed="6.95"/>
   </edge>
   <edge function="internal" id=":1340086774_10">
      <lane id=":1340086774_10_0" index="0" length="2.41" shape="298.01,783.03 298.86,782.68 300.34,782.87" speed="8.33"/>
   </edge>
   <edge function="internal" id=":1340086774_3">
      <lane disallow="tram rail_urban rail rail_electric ship" id=":1340086774_3_0" index="0" length="5.02" shape="300.07,778.50 299.30,779.64 299.09,780.75 299.43,781.83 300.34,782.87" speed="6.95"/>
   </edge>
   <edge function="internal" id=":1340086774_4">
      <lane disallow="tram rail_urban rail rail_electric ship" id=":1340086774_4_0" index="0" length="10.33" shape="300.07,778.50 297.89,780.33 295.65,781.04 293.36,780.64 291.00,779.13" speed="6.95"/>
   </edge>
   <edge function="internal" id=":1340086774_5">
      <lane allow="delivery bicycle pedestrian" id=":1340086774_5_0" index="0" length="4.82" shape="300.07,778.50 298.63,778.87 297.74,778.62 297.40,777.76 297.61,776.29" speed="5.56"/>
   </edge>
   <edge function="internal" id=":1340086774_6">
      <lane allow="delivery bicycle pedestrian" id=":1340086774_6_0" index="0" length="5.06" shape="293.17,776.64 294.32,777.37 295.44,777.56 296.54,777.20 297.61,776.29" speed="6.95"/>
   </edge>
   <edge function="internal" id=":1340086774_7">
      <lane disallow="tram rail_urban rail rail_electric ship" id=":1340086774_7_0" index="0" length="9.50" shape="293.17,776.64 300.34,782.87" speed="8.33"/>
   </edge>
   <edge function="internal" id=":1340086774_8">
      <lane disallow="tram rail_urban rail rail_electric ship" id=":1340086774_8_0" index="0" length="2.41" shape="293.17,776.64 293.56,778.07 293.33,778.97" speed="8.33"/>
   </edge>
   <edge function="internal" id=":1340086774_11">
      <lane id=":1340086774_11_0" index="0" length="2.41" shape="293.33,778.97 292.48,779.32 291.00,779.13" speed="8.33"/>
   </edge>
   <edge function="internal" id=":1340086792_0">
      <lane disallow="tram rail_urban rail rail_electric ship" id=":1340086792_0_0" index="0" length="9.50" shape="349.16,829.72 341.99,823.48" speed="8.33"/>
   </edge>
   <edge function="internal" id=":1340086792_1">
      <lane allow="delivery bicycle pedestrian" id=":1340086792_1_0" index="0" length="5.29" shape="349.16,829.72 347.31,827.57 346.59,825.35 346.61,825.24" speed="6.95"/>
   </edge>
   <edge function="internal" id=":1340086792_2">
      <lane disallow="tram rail_urban rail rail_electric ship" id=":1340086792_2_0" index="0" length="2.41" shape="349.16,829.72 348.77,828.28 349.00,827.39" speed="8.33"/>
   </edge>
   <edge function="internal" id=":1340086792_9">
      <lane id=":1340086792_9_0" index="0" length="5.07" shape="346.61,825.24 347.01,823.05 348.56,820.67" speed="6.95"/>
   </edge>
   <edge function="internal" id=":1340086792_10">
      <lane id=":1340086792_10_0" index="0" length="2.41" shape="349.00,827.39 349.85,827.04 351.33,827.23" speed="8.33"/>
   </edge>
   <edge function="internal" id=":1340086792_3">
      <lane disallow="tram rail_urban rail rail_electric ship" id=":1340086792_3_0" index="0" length="5.01" shape="351.04,822.85 350.29,824.00 350.08,825.11 350.43,826.19 351.33,827.23" speed="6.95"/>
   </edge>
   <edge function="internal" id=":1340086792_4">
      <lane disallow="tram rail_urban rail rail_electric ship" id=":1340086792_4_0" index="0" length="10.32" shape="351.04,822.85 348.88,824.70 346.66,825.41 344.36,825.01 341.99,823.48" speed="6.95"/>
   </edge>
   <edge function="internal" id=":1340086792_5">
      <lane allow="delivery bicycle pedestrian" id=":1340086792_5_0" index="0" length="4.82" shape="351.04,822.85 349.60,823.24 348.71,823.00 348.36,822.14 348.56,820.67" speed="5.56"/>
   </edge>
   <edge function="internal" id=":1340086792_6">
      <lane allow="delivery bicycle pedestrian" id=":1340086792_6_0" index="0" length="5.03" shape="344.16,820.99 345.31,821.73 346.43,821.93 347.51,821.57 348.56,820.67" speed="6.95"/>
   </edge>
   <edge function="internal" id=":1340086792_7">
      <lane disallow="tram rail_urban rail rail_electric ship" id=":1340086792_7_0" index="0" length="9.50" shape="344.16,820.99 351.33,827.23" speed="8.33"/>
   </edge>
   <edge function="internal" id=":1340086792_8">
      <lane disallow="tram rail_urban rail rail_electric ship" id=":1340086792_8_0" index="0" length="2.41" shape="344.16,820.99 344.55,822.43 344.32,823.32" speed="8.33"/>
   </edge>
   <edge function="internal" id=":1340086792_11">
      <lane id=":1340086792_11_0" index="0" length="2.41" shape="344.32,823.32 343.47,823.67 341.99,823.48" speed="8.33"/>
   </edge>
   <edge function="internal" id=":1340086797_0">
      <lane allow="delivery bicycle pedestrian" id=":1340086797_0_0" index="0" length="4.82" shape="297.13,728.79 298.56,728.40 299.45,728.63 299.80,729.49 299.61,730.96" speed="5.56"/>
   </edge>
   <edge function="internal" id=":1340086799_0">
      <lane allow="delivery bicycle pedestrian" id=":1340086799_0_0" index="0" length="4.82" shape="320.98,750.27 322.42,749.90 323.31,750.15 323.65,751.01 323.43,752.48" speed="5.56"/>
   </edge>
   <edge function="internal" id=":1340086814_0">
      <lane disallow="tram rail_urban rail rail_electric ship" id=":1340086814_0_0" index="0" length="9.51" shape="274.28,764.58 267.11,758.34" speed="8.33"/>
   </edge>
   <edge function="internal" id=":1340086814_1">
      <lane allow="delivery bicycle pedestrian" id=":1340086814_1_0" index="0" length="5.29" shape="274.28,764.58 272.42,762.44 271.70,760.21 271.72,760.10" speed="6.95"/>
   </edge>
   <edge function="internal" id=":1340086814_2">
      <lane disallow="tram rail_urban rail rail_electric ship" id=":1340086814_2_0" index="0" length="2.41" shape="274.28,764.58 273.88,763.15 274.11,762.25" speed="8.33"/>
   </edge>
   <edge function="internal" id=":1340086814_9">
      <lane id=":1340086814_9_0" index="0" length="5.06" shape="271.72,760.10 272.12,757.92 273.67,755.54" speed="6.95"/>
   </edge>
   <edge function="internal" id=":1340086814_10">
      <lane id=":1340086814_10_0" index="0" length="2.41" shape="274.11,762.25 274.97,761.90 276.44,762.09" speed="8.33"/>
   </edge>
   <edge function="internal" id=":1340086814_3">
      <lane disallow="tram rail_urban rail rail_electric ship" id=":1340086814_3_0" index="0" length="5.00" shape="276.15,757.72 275.40,758.87 275.20,759.98 275.54,761.05 276.44,762.09" speed="6.95"/>
   </edge>
   <edge function="internal" id=":1340086814_4">
      <lane disallow="tram rail_urban rail rail_electric ship" id=":1340086814_4_0" index="0" length="10.33" shape="276.15,757.72 274.00,759.56 271.77,760.28 269.48,759.87 267.11,758.34" speed="6.95"/>
   </edge>
   <edge function="internal" id=":1340086814_5">
      <lane allow="delivery bicycle pedestrian" id=":1340086814_5_0" index="0" length="4.82" shape="276.15,757.72 274.71,758.10 273.82,757.87 273.47,757.02 273.67,755.54" speed="5.56"/>
   </edge>
   <edge function="internal" id=":1340086814_6">
      <lane allow="delivery bicycle pedestrian" id=":1340086814_6_0" index="0" length="5.01" shape="269.28,755.85 270.43,756.59 271.54,756.79 272.62,756.44 273.67,755.54" speed="6.95"/>
   </edge>
   <edge function="internal" id=":1340086814_7">
      <lane disallow="tram rail_urban rail rail_electric ship" id=":1340086814_7_0" index="0" length="9.50" shape="269.28,755.85 276.44,762.09" speed="8.33"/>
   </edge>
   <edge function="internal" id=":1340086814_8">
      <lane disallow="tram rail_urban rail rail_electric ship" id=":1340086814_8_0" index="0" length="2.41" shape="269.28,755.85 269.67,757.28 269.44,758.18" speed="8.33"/>
   </edge>
   <edge function="internal" id=":1340086814_11">
      <lane id=":1340086814_11_0" index="0" length="2.41" shape="269.44,758.18 268.58,758.53 267.11,758.34" speed="8.33"/>
   </edge>
   <edge function="internal" id=":1340086830_0">
      <lane allow="delivery bicycle pedestrian" id=":1340086830_0_0" index="0" length="4.82" shape="370.25,796.06 371.69,795.67 372.58,795.91 372.93,796.76 372.73,798.24" speed="5.56"/>
   </edge>
   <edge function="internal" id=":150994936_0">
      <lane disallow="tram rail_urban rail rail_electric bicycle pedestrian ship" id=":150994936_0_0" index="0" length="4.81" shape="30.02,855.58 24.24,855.83" speed="22.22"/>
      <lane disallow="tram rail_urban rail rail_electric bicycle pedestrian ship" id=":150994936_0_1" index="1" length="4.81" shape="30.02,855.58 26.71,853.64" speed="22.22"/>
   </edge>
   <edge function="internal" id=":1579717877_0">
      <lane disallow="tram rail_urban rail rail_electric ship" id=":1579717877_0_0" index="0" length="0.10" shape="62.42,612.93 62.42,612.93" speed="8.33"/>
   </edge>
   <edge function="internal" id=":1579717877_1">
      <lane disallow="tram rail_urban rail rail_electric ship" id=":1579717877_1_0" index="0" length="2.41" shape="62.42,612.93 62.03,611.49 62.26,610.60" speed="8.33"/>
   </edge>
   <edge function="internal" id=":1579717877_4">
      <lane id=":1579717877_4_0" index="0" length="2.41" shape="62.26,610.60 63.12,610.25 64.59,610.44" speed="8.33"/>
   </edge>
   <edge function="internal" id=":1579717877_2">
      <lane disallow="tram rail_urban rail rail_electric ship" id=":1579717877_2_0" index="0" length="0.10" shape="64.59,610.44 64.59,610.44" speed="8.33"/>
   </edge>
   <edge function="internal" id=":1579717877_3">
      <lane disallow="tram rail_urban rail rail_electric ship" id=":1579717877_3_0" index="0" length="2.41" shape="64.59,610.44 64.98,611.88 64.75,612.77" speed="8.33"/>
   </edge>
   <edge function="internal" id=":1579717877_5">
      <lane id=":1579717877_5_0" index="0" length="2.41" shape="64.75,612.77 63.89,613.12 62.42,612.93" speed="8.33"/>
   </edge>
   <edge function="internal" id=":1579718525_0">
      <lane disallow="tram rail_urban rail rail_electric ship" id=":1579718525_0_0" index="0" length="0.40" shape="93.59,859.83 93.99,859.84" speed="22.22"/>
   </edge>
   <edge function="internal" id=":1887929356_0">
      <lane allow="delivery bicycle pedestrian" id=":1887929356_0_0" index="0" length="0.10" shape="753.16,118.23 753.16,118.23" speed="5.56"/>
   </edge>
   <edge function="internal" id=":1887929356_1">
      <lane allow="delivery bicycle pedestrian" id=":1887929356_1_0" index="0" length="2.41" shape="753.16,118.23 751.72,118.59 750.83,118.34" speed="5.56"/>
   </edge>
   <edge function="internal" id=":1887929356_4">
      <lane id=":1887929356_4_0" index="0" length="2.41" shape="750.83,118.34 750.50,117.48 750.73,116.01" speed="5.56"/>
   </edge>
   <edge function="internal" id=":1887929356_2">
      <lane allow="delivery bicycle pedestrian" id=":1887929356_2_0" index="0" length="0.10" shape="750.73,116.01 750.73,116.01" speed="5.56"/>
   </edge>
   <edge function="internal" id=":1887929356_3">
      <lane allow="delivery bicycle pedestrian" id=":1887929356_3_0" index="0" length="2.41" shape="750.73,116.01 752.17,115.65 753.06,115.90" speed="5.56"/>
   </edge>
   <edge function="internal" id=":1887929356_5">
      <lane id=":1887929356_5_0" index="0" length="2.41" shape="753.06,115.90 753.39,116.76 753.16,118.23" speed="5.56"/>
   </edge>
   <edge function="internal" id=":2107270720_0">
      <lane disallow="tram rail_urban rail rail_electric ship" id=":2107270720_0_0" index="0" length="9.65" shape="426.91,75.62 424.38,73.32 422.19,71.74 420.35,70.88 418.86,70.75" speed="8.33"/>
   </edge>
   <edge function="internal" id=":2107270720_1">
      <lane disallow="tram rail_urban rail rail_electric ship" id=":2107270720_1_0" index="0" length="15.30" shape="426.91,75.62 423.81,71.79 423.24,68.88 425.20,66.90 429.70,65.83" speed="8.33"/>
   </edge>
   <edge function="internal" id=":2107270720_2">
      <lane disallow="tram rail_urban rail rail_electric ship" id=":2107270720_2_0" index="0" length="4.83" shape="426.91,75.62 426.51,74.18 426.73,73.28 427.58,72.92 429.06,73.10" speed="8.33"/>
   </edge>
   <edge function="internal" id=":2107270720_3">
      <lane disallow="tram rail_urban rail rail_electric ship" id=":2107270720_3_0" index="0" length="6.29" shape="430.25,69.09 428.39,69.53 427.57,70.35 427.80,71.53 429.06,73.10" speed="8.33"/>
   </edge>
   <edge function="internal" id=":2107270720_4">
      <lane disallow="tram rail_urban rail rail_electric ship" id=":2107270720_4_0" index="0" length="11.52" shape="430.25,69.09 427.07,69.45 424.54,69.80 422.02,70.20 418.86,70.75" speed="8.33"/>
   </edge>
   <edge function="internal" id=":2107270720_5">
      <lane disallow="tram rail_urban rail rail_electric ship" id=":2107270720_5_0" index="0" length="4.83" shape="430.25,69.09 428.89,68.49 428.35,67.74 428.62,66.86 429.70,65.83" speed="8.33"/>
   </edge>
   <edge function="internal" id=":2107270720_6">
      <lane disallow="tram rail_urban rail rail_electric ship" id=":2107270720_6_0" index="0" length="11.53" shape="418.30,67.50 421.46,66.95 423.98,66.54 426.51,66.19 429.70,65.83" speed="8.33"/>
   </edge>
   <edge function="internal" id=":2107270720_7">
      <lane disallow="tram rail_urban rail rail_electric ship" id=":2107270720_7_0" index="0" length="12.52" shape="418.30,67.50 420.58,67.57 423.14,68.53 425.96,70.37 429.06,73.10" speed="8.33"/>
   </edge>
   <edge function="internal" id=":2107270720_8">
      <lane disallow="tram rail_urban rail rail_electric ship" id=":2107270720_8_0" index="0" length="4.82" shape="418.30,67.50 419.66,68.10 420.20,68.84 419.94,69.72 418.86,70.75" speed="8.33"/>
   </edge>
   <edge function="internal" id=":2107270724_0">
      <lane disallow="tram rail_urban rail rail_electric ship" id=":2107270724_0_0" index="0" length="0.70" shape="413.71,74.61 413.20,75.09" speed="8.33"/>
   </edge>
   <edge function="internal" id=":2107270724_1">
      <lane disallow="tram rail_urban rail rail_electric ship" id=":2107270724_1_0" index="0" length="2.41" shape="413.71,74.61 412.26,74.96 411.37,74.70" speed="8.33"/>
   </edge>
   <edge function="internal" id=":2107270724_4">
      <lane id=":2107270724_4_0" index="0" length="2.41" shape="411.37,74.70 411.05,73.84 411.28,72.37" speed="8.33"/>
   </edge>
   <edge function="internal" id=":2107270724_2">
      <lane disallow="tram rail_urban rail rail_electric ship" id=":2107270724_2_0" index="0" length="0.23" shape="411.11,72.53 411.28,72.37" speed="8.33"/>
   </edge>
   <edge function="internal" id=":2107270724_3">
      <lane disallow="tram rail_urban rail rail_electric ship" id=":2107270724_3_0" index="0" length="2.41" shape="411.11,72.53 412.59,72.39 413.44,72.76" speed="8.33"/>
   </edge>
   <edge function="internal" id=":2107270724_5">
      <lane id=":2107270724_5_0" index="0" length="2.41" shape="413.44,72.76 413.64,73.67 413.20,75.09" speed="8.33"/>
   </edge>
   <edge function="internal" id=":2292502063_0">
      <lane disallow="tram rail_urban rail rail_electric ship" id=":2292502063_0_0" index="0" length="4.82" shape="296.84,132.14 295.37,132.35 294.51,132.01 294.27,131.12 294.65,129.68" speed="13.89"/>
   </edge>
   <edge function="internal" id=":2457562546_0">
      <lane disallow="tram rail_urban rail rail_electric ship" id=":2457562546_0_0" index="0" length="0.10" shape="172.58,735.86 172.59,735.85" speed="13.89"/>
   </edge>
   <edge function="internal" id=":2457562546_1">
      <lane disallow="tram rail_urban rail rail_electric ship" id=":2457562546_1_0" index="0" length="2.41" shape="172.58,735.86 171.12,736.18 170.24,735.90" speed="13.89"/>
   </edge>
   <edge function="internal" id=":2457562546_4">
      <lane id=":2457562546_4_0" index="0" length="2.41" shape="170.24,735.90 169.94,735.03 170.20,733.57" speed="13.89"/>
   </edge>
   <edge function="internal" id=":2457562546_2">
      <lane disallow="tram rail_urban rail rail_electric ship" id=":2457562546_2_0" index="0" length="0.10" shape="170.20,733.57 170.20,733.57" speed="13.89"/>
   </edge>
   <edge function="internal" id=":2457562546_3">
      <lane disallow="tram rail_urban rail rail_electric ship" id=":2457562546_3_0" index="0" length="2.41" shape="170.20,733.57 171.65,733.24 172.53,733.51" speed="13.89"/>
   </edge>
   <edge function="internal" id=":2457562546_5">
      <lane id=":2457562546_5_0" index="0" length="2.41" shape="172.53,733.51 172.84,734.38 172.59,735.85" speed="13.89"/>
   </edge>
   <edge function="internal" id=":2457562548_0">
      <lane disallow="tram rail_urban rail rail_electric ship" id=":2457562548_0_0" index="0" length="3.65" shape="151.21,758.50 151.70,762.85" speed="13.89"/>
      <lane disallow="tram rail_urban rail rail_electric ship" id=":2457562548_0_1" index="1" length="3.65" shape="151.21,758.50 149.24,760.66" speed="13.89"/>
   </edge>
   <edge function="internal" id=":2457562548_2">
      <lane disallow="tram rail_urban rail rail_electric ship" id=":2457562548_2_0" index="0" length="2.41" shape="151.21,758.50 149.76,758.83 148.88,758.57" speed="13.89"/>
   </edge>
   <edge function="internal" id=":2457562548_5">
      <lane id=":2457562548_5_0" index="0" length="2.41" shape="148.88,758.57 148.56,757.70 148.81,756.23" speed="13.89"/>
   </edge>
   <edge function="internal" id=":2457562548_3">
      <lane disallow="tram rail_urban rail rail_electric ship" id=":2457562548_3_0" index="0" length="3.03" shape="146.77,758.47 148.81,756.23" speed="13.89"/>
   </edge>
   <edge function="internal" id=":2457562548_4">
      <lane disallow="tram rail_urban rail rail_electric ship" id=":2457562548_4_0" index="0" length="2.41" shape="146.77,758.47 148.21,758.09 149.10,758.33" speed="13.89"/>
   </edge>
   <edge function="internal" id=":2457562548_6">
      <lane id=":2457562548_6_0" index="0" length="2.41" shape="149.10,758.33 149.44,759.19 149.24,760.66" speed="13.89"/>
   </edge>
   <edge function="internal" id=":2457562550_0">
      <lane disallow="tram rail_urban rail rail_electric ship" id=":2457562550_0_0" index="0" length="2.93" shape="142.43,773.30 140.53,775.48" speed="13.89"/>
      <lane disallow="tram rail_urban rail rail_electric ship" id=":2457562550_0_1" index="1" length="2.93" shape="139.96,771.11 138.02,773.34" speed="13.89"/>
   </edge>
   <edge function="internal" id=":2457562550_2">
      <lane disallow="tram rail_urban rail rail_electric ship" id=":2457562550_2_0" index="0" length="3.19" shape="139.96,771.11 138.52,771.49 137.63,771.25 137.34,770.52" speed="13.89"/>
   </edge>
   <edge function="internal" id=":2457562550_5">
      <lane id=":2457562550_5_0" index="0" length="1.63" shape="137.34,770.52 137.29,770.39 137.49,768.92" speed="13.89"/>
   </edge>
   <edge function="internal" id=":2457562550_3">
      <lane disallow="tram rail_urban rail rail_electric ship" id=":2457562550_3_0" index="0" length="4.50" shape="132.99,769.07 137.49,768.92" speed="13.89"/>
   </edge>
   <edge function="internal" id=":2457562550_4">