<?xml version="1.0" encoding="utf-8"?><!-- generated on 10/11/17 17:53:10 by SUMO polyconvert Version 0.25.0
<?xml version="1.0" encoding="UTF-8"?>

<configuration xmlns:xsi="http://www.w3.org/2001/XMLSchema-instance" xsi:noNamespaceSchemaLocation="http://sumo.dlr.de/xsd/polyconvertConfiguration.xsd">

    <input>
        <net-file value="FR_Mooswald_urban_800.net.xml"/>
        <osm-files value="FR_Mooswald_urban_800.osm"/>
        <type-file value="osmPolyconvert.typ.xml"/>
    </input>

    <output>
        <output-file value="FR_Mooswald_urban_800.poly.xml"/>
    </output>

    <projection>
        <proj.utm value="true"/>
    </projection>

    <processing>
        <poi-layer-offset value="5"/>
    </processing>

</configuration>
-->
<additional>
   <location convBoundary="-10.75,-2.61,866.75,864.11" netOffset="-411580.42,-5318382.81" origBoundary="7.814200,48.012701,7.825900,48.020400" projParameter="+proj=utm +zone=32 +ellps=WGS84 +datum=WGS84 +units=m +no_defs"/>
   <poly color="237,199,199" fill="1" id="103428513" layer="-1.00" shape="116.57,245.55 121.98,241.12 121.26,240.24 128.86,234.03 118.10,220.94 103.08,233.20 99.89,229.33 91.47,236.21 97.14,243.11 81.34,256.02 87.17,263.11 90.05,260.76 94.96,266.76 102.31,260.75 102.84,261.40 107.84,257.32 106.28,255.42 110.45,252.02 108.71,249.92 111.16,247.91 108.59,244.78 112.99,241.19 116.57,245.55" type="amenity"/>
   <poly color="red" fill="1" id="103428513#1" layer="-1.00" shape="116.57,245.55 121.98,241.12 121.26,240.24 128.86,234.03 118.10,220.94 103.08,233.20 99.89,229.33 91.47,236.21 97.14,243.11 81.34,256.02 87.17,263.11 90.05,260.76 94.96,266.76 102.31,260.75 102.84,261.40 107.84,257.32 106.28,255.42 110.45,252.02 108.71,249.92 111.16,247.91 108.59,244.78 112.99,241.19 116.57,245.55" type="building"/>
   <poly color="red" fill="1" id="103428515" layer="-1.00" shape="24.39,462.16 16.85,453.79 10.13,459.81 17.66,468.17 24.39,462.16" type="building"/>
   <poly color="red" fill="1" id="103428516" layer="-1.00" shape="56.19,280.07 49.75,286.70 53.32,290.13 52.56,290.91 57.82,296.00 58.57,295.22 61.53,298.09 72.77,286.53 66.34,280.32 61.55,285.25 56.19,280.07" type="building"/>
   <poly color="red" fill="1" id="103428970" layer="-1.00" shape="320.90,617.52 317.04,620.75 323.92,628.95 327.79,625.73 320.90,617.52" type="building"/>
   <poly color="red" fill="1" id="103428971" layer="-1.00" shape="389.87,731.15 397.65,724.59 402.72,730.58 394.94,737.14 389.87,731.15" type="building"/>
   <poly color="red" fill="1" id="103428976" layer="-1.00" shape="393.13,852.75 392.22,853.63 390.90,852.27 388.95,854.16 390.11,855.35 387.88,857.52 387.07,858.32 393.13,852.75" type="building"/>
   <poly color="red" fill="1" id="103428979" layer="-1.00" shape="477.31,693.52 483.14,699.55 490.04,692.91 489.12,691.95 485.80,688.53 484.20,686.88 477.31,693.52" type="building"/>
   <poly color="red" fill="1" id="103428980" layer="-1.00" shape="256.62,539.13 263.29,533.49 256.71,525.78 250.05,531.42 256.62,539.13" type="building"/>
   <poly color="red" fill="1" id="103458912" layer="-1.00" shape="279.66,652.29 283.07,649.10 290.11,657.04 286.55,659.97 279.66,652.29" type="building"/>
   <poly color="red" fill="1" id="103458922" layer="-1.00" shape="207.30,486.20 200.98,479.05 209.86,471.24 216.19,478.39 207.30,486.20" type="building"/>
   <poly color="red" fill="1" id="103458929" layer="-1.00" shape="247.46,547.32 253.20,542.50 255.68,545.43 249.95,550.26 247.46,547.32" type="building"/>
   <poly color="red" fill="1" id="103458930" layer="-1.00" shape="79.04,307.31 72.93,300.37 84.19,290.50 90.30,297.45 81.21,305.41 79.47,306.93 79.04,307.31" type="building"/>
   <poly color="red" fill="1" id="103458936" layer="-1.00" shape="340.91,612.56 334.05,604.39 351.69,589.65 358.55,597.81 340.91,612.56" type="building"/>
   <poly color="red" fill="1" id="103458966" layer="-1.00" shape="232.89,558.88 237.14,555.28 240.15,558.82 235.90,562.42 232.89,558.88" type="building"/>
   <poly color="237,199,199" fill="1" id="103458967" layer="-1.00" shape="64.83,356.75 49.02,338.43 54.27,333.93 55.02,334.80 83.07,310.73 84.74,309.29 84.98,309.09 99.70,326.15 92.48,332.35 94.27,334.44 90.27,337.87 87.22,334.33 68.22,350.64 69.80,352.48 64.83,356.75" type="amenity"/>
   <poly color="red" fill="1" id="103458967#1" layer="-1.00" shape="64.83,356.75 49.02,338.43 54.27,333.93 55.02,334.80 83.07,310.73 84.74,309.29 84.98,309.09 99.70,326.15 92.48,332.35 94.27,334.44 90.27,337.87 87.22,334.33 68.22,350.64 69.80,352.48 64.83,356.75" type="building"/>
   <poly color="red" fill="1" id="103458972" layer="-1.00" shape="257.49,558.86 262.36,554.59 266.97,559.77 262.11,564.06 257.49,558.86" type="building"/>
   <poly color="red" fill="1" id="103458976" layer="-1.00" shape="261.05,546.28 267.57,540.67 268.83,539.57 275.14,546.85 267.35,553.56 261.05,546.28" type="building"/>
   <poly color="237,199,199" fill="1" id="103459969" layer="-1.00" shape="51.49,168.35 53.31,169.77 54.81,169.85 57.45,172.45 56.22,173.71 58.50,175.93 64.31,170.14 66.04,171.82 67.84,171.59 70.54,174.60 69.61,175.70 73.26,179.49 75.27,179.60 77.91,182.31 76.78,183.47 79.24,185.92 77.76,187.49 78.98,188.53 81.83,185.54 87.44,185.75 91.00,189.59 91.05,194.67 87.31,198.52 81.75,198.16 81.04,197.12 79.51,198.64 88.65,207.78 86.82,209.35 86.91,211.49 84.42,213.93 83.53,212.89 76.21,219.81 77.48,221.08 74.88,222.58 72.18,222.42 70.75,223.83 60.58,213.97 62.40,212.14 62.27,210.42 64.72,207.77 66.07,209.07 70.46,204.41 64.98,199.14 62.61,201.64 60.05,199.11 59.04,200.10 56.40,197.47 56.43,194.93 52.84,191.44 51.92,192.44 49.26,189.94 49.40,187.59 45.51,183.76 44.60,184.50 42.09,182.17 42.03,180.11 40.47,178.60 45.93,173.02 46.44,173.52 51.49,168.35" type="amenity"/>
   <poly color="red" fill="1" id="103459969#1" layer="-1.00" shape="51.49,168.35 53.31,169.77 54.81,169.85 57.45,172.45 56.22,173.71 58.50,175.93 64.31,170.14 66.04,171.82 67.84,171.59 70.54,174.60 69.61,175.70 73.26,179.49 75.27,179.60 77.91,182.31 76.78,183.47 79.24,185.92 77.76,187.49 78.98,188.53 81.83,185.54 87.44,185.75 91.00,189.59 91.05,194.67 87.31,198.52 81.75,198.16 81.04,197.12 79.51,198.64 88.65,207.78 86.82,209.35 86.91,211.49 84.42,213.93 83.53,212.89 76.21,219.81 77.48,221.08 74.88,222.58 72.18,222.42 70.75,223.83 60.58,213.97 62.40,212.14 62.27,210.42 64.72,207.77 66.07,209.07 70.46,204.41 64.98,199.14 62.61,201.64 60.05,199.11 59.04,200.10 56.40,197.47 56.43,194.93 52.84,191.44 51.92,192.44 49.26,189.94 49.40,187.59 45.51,183.76 44.60,184.50 42.09,182.17 42.03,180.11 40.47,178.60 45.93,173.02 46.44,173.52 51.49,168.35" type="building"/>
   <poly color="red" fill="0" id="103459970" layer="-1.00" shape="-10.29,189.32 3.28,210.86" type="building"/>
   <poly color="red" fill="1" id="103459971" layer="-1.00" shape="-7.33,222.43 6.82,213.42 19.51,230.14 5.47,240.20 -7.33,222.43" type="building"/>
   <poly color="237,199,199" fill="0" id="112644165" layer="-1.00" shape="557.19,95.49 559.26,97.71" type="amenity"/>
   <poly color="235,235,227" fill="0" id="112644168" layer="-3.00" shape="650.68,194.22 672.24,180.15 724.26,174.04 780.34,121.31 792.95,110.91" type="residential"/>
   <poly color="237,199,199" fill="0" id="112644170" layer="-1.00" shape="620.46,162.46 658.54,132.37 631.07,99.33 590.72,71.96 559.26,97.71" type="amenity"/>
   <poly color="237,199,199" fill="0" id="112644173" layer="-1.00" shape="559.26,97.71 620.46,162.46" type="amenity"/>
   <poly color="237,199,199" fill="0" id="112644174" layer="-1.00" shape="620.46,162.46 650.68,194.22" type="amenity"/>
   <poly color="235,235,227" fill="0" id="112644176" layer="-3.00" shape="554.25,92.84 557.19,95.49 559.26,97.71 620.46,162.46 650.68,194.22" type="residential"/>
   <poly color="207,245,201" fill="0" id="112932488" layer="-2.00" shape="248.26,9.22 251.89,16.64 256.02,21.97 259.38,25.13 265.04,29.00 273.13,32.31 284.74,33.60 290.73,32.81 295.85,31.31 301.03,28.90 305.93,25.61" type="leisure"/>
   <poly color="79,230,125" fill="0" id="112932488#1" layer="-2.00" shape="248.26,9.22 251.89,16.64 256.02,21.97 259.38,25.13 265.04,29.00 273.13,32.31 284.74,33.60 290.73,32.81 295.85,31.31 301.03,28.90 305.93,25.61" type="sport"/>
   <poly color="207,245,201" fill="0" id="112932497" layer="-2.00" shape="295.85,31.31 301.03,28.90 305.93,25.61" type="leisure"/>
   <poly color="79,230,125" fill="0" id="112932497#1" layer="-2.00" shape="295.85,31.31 301.03,28.90 305.93,25.61" type="sport"/>
   <poly color="194,194,130" fill="0" id="112932501" layer="-3.00" shape="229.39,14.12 233.93,23.80 238.40,29.86 245.27,37.02 254.66,43.86 263.50,49.16 279.87,53.35 284.84,58.66 297.49,60.25" type="landuse"/>
   <poly color="207,245,201" fill="0" id="112932501#1" layer="-2.00" shape="229.39,14.12 233.93,23.80 238.40,29.86 245.27,37.02 254.66,43.86 263.50,49.16 279.87,53.35 284.84,58.66 297.49,60.25" type="tourism"/>
   <poly color="red" fill="1" id="118055027" layer="-1.00" shape="492.75,814.27 486.39,808.77 486.29,808.88 481.77,814.06 488.12,819.58 492.75,814.27" type="building"/>
   <poly color="red" fill="1" id="118055032" layer="-1.00" shape="434.25,849.02 430.77,845.57 432.82,843.52 436.30,846.96 434.25,849.02" type="building"/>
   <poly color="red" fill="1" id="118055036" layer="-1.00" shape="443.72,852.47 449.24,846.06 458.39,853.86 443.72,852.47" type="building"/>
   <poly color="red" fill="1" id="118055037" layer="-1.00" shape="413.41,846.59 405.49,838.59 411.29,832.88 419.20,840.89 413.41,846.59" type="building"/>
   <poly color="red" fill="1" id="118055039" layer="-1.00" shape="495.01,803.22 491.29,800.13 492.21,799.03 489.65,796.90 493.86,791.87 496.69,794.22 497.25,793.55 504.86,799.87 499.63,806.14 497.52,804.38 496.62,805.45 494.58,803.74 495.01,803.22" type="building"/>
   <poly color="red" fill="1" id="118055048" layer="-1.00" shape="476.41,833.35 475.32,832.39 473.39,830.68 472.33,831.87 469.56,829.41 470.62,828.22 465.12,823.34 470.63,817.17 479.11,824.70 480.09,823.60 482.34,825.60 481.29,826.77 481.85,827.26 476.41,833.35" type="building"/>
   <poly color="red" fill="1" id="118055053" layer="-1.00" shape="492.64,789.81 487.30,785.32 489.63,782.57 494.97,787.06 492.64,789.81" type="building"/>
   <poly color="red" fill="1" id="118055054" layer="-1.00" shape="510.87,793.21 506.73,789.31 506.05,790.02 502.28,786.48 508.43,779.97 515.02,786.24 513.59,787.72 514.86,788.93 510.87,793.21" type="building"/>
   <poly color="red" fill="1" id="118055059" layer="-1.00" shape="464.11,847.05 453.61,837.26 455.84,834.89 453.51,832.73 456.79,829.22 458.24,830.58 458.56,830.24 465.39,836.60 467.16,834.70 470.98,838.25 469.77,839.55 470.51,840.24 464.11,847.05" type="building"/>
   <poly color="red" fill="1" id="118055062" layer="-1.00" shape="466.75,781.25 462.70,777.72 465.11,774.96 469.17,778.48 466.75,781.25" type="building"/>
   <poly color="red" fill="1" id="118055063" layer="-1.00" shape="437.16,857.86" type="building"/>
   <poly color="red" fill="1" id="118055064" layer="-1.00" shape="487.67,852.07" type="building"/>
   <poly color="red" fill="1" id="118055065" layer="-1.00" shape="455.26,794.94 449.00,788.76 455.85,781.84 457.25,783.21 458.56,783.02 460.04,784.29 459.51,785.44 462.12,788.02 455.26,794.94" type="building"/>
   <poly color="red" fill="1" id="118055067" layer="-1.00" shape="498.77,846.20 498.06,847.04 494.95,844.41 501.08,837.18 509.15,843.97 503.72,850.37 498.77,846.20" type="building"/>
   <poly color="red" fill="1" id="118055069" layer="-1.00" shape="525.27,855.99" type="building"/>
   <poly color="red" fill="1" id="119215272" layer="-1.00" shape="339.50,811.04 362.28,784.78 371.55,792.77 348.77,819.03 339.50,811.04" type="building"/>
   <poly color="red" fill="1" id="119215275" layer="-1.00" shape="329.01,801.16 351.40,775.55 355.78,779.36 333.39,804.97 329.01,801.16" type="building"/>
   <poly color="red" fill="1" id="119215276" layer="-1.00" shape="288.52,765.80 311.08,740.29 320.27,748.37 297.70,773.88 288.52,765.80" type="building"/>
   <poly color="red" fill="1" id="119215277" layer="-1.00" shape="354.93,822.99 377.01,797.69 381.47,801.56 359.38,826.85 354.93,822.99" type="building"/>
   <poly color="red" fill="1" id="119215279" layer="-1.00" shape="263.36,743.51 286.42,717.75 289.31,720.32 289.90,719.66 293.67,723.02 293.12,723.64 296.05,726.24 272.96,752.05 263.36,743.51" type="building"/>
   <poly color="red" fill="1" id="119215281" layer="-1.00" shape="282.70,759.78 278.51,756.13 303.24,727.91 307.42,731.56 282.70,759.78" type="building"/>
   <poly color="red" fill="1" id="119215282" layer="-1.00" shape="303.89,778.21 325.50,752.87 330.43,757.05 308.83,782.39 303.89,778.21" type="building"/>
   <poly color="red" fill="1" id="119215283" layer="-1.00" shape="314.12,788.33 336.66,762.50 345.88,770.49 323.34,796.32 314.12,788.33" type="building"/>
   <poly color="194,194,130" fill="1" id="125948389" layer="-3.00" shape="674.98,807.36" type="landuse"/>
   <poly color="207,245,201" fill="0" id="144448451" layer="-2.00" shape="7.70,99.01 28.31,121.66 -2.43,149.47" type="leisure"/>
   <poly color="207,245,201" fill="1" id="144448520" layer="-2.00" shape="-1.65,383.95" type="leisure"/>
   <poly color="red" fill="1" id="173151914" layer="-1.00" shape="561.93,735.73 568.10,742.35 558.32,751.41 556.70,749.67 555.92,750.40 553.67,748.00 554.43,747.29 552.12,744.82 561.93,735.73" type="building"/>
   <poly color="181,209,209" fill="1" id="173151915" layer="-4.00" shape="853.78,183.64 854.99,182.23 857.19,184.19 859.83,184.75 861.99,184.12 861.69,188.51 858.28,190.15 856.09,189.00 853.78,183.64" type="water"/>
   <poly color="red" fill="1" id="173151922" layer="-1.00" shape="478.43,724.46 485.48,731.66 475.84,741.04 474.64,739.81 468.69,745.59 462.21,738.97 471.30,729.52 472.22,730.48 478.43,724.46" type="building"/>
   <poly color="red" fill="1" id="184921045" layer="-1.00" shape="549.90,787.94 555.97,781.12 547.74,773.84 541.42,780.96 541.78,781.27 540.74,782.44 544.15,785.45 545.44,784.00 549.90,787.94" type="building"/>
   <poly color="red" fill="1" id="184921047" layer="-1.00" shape="385.95,765.94 387.00,767.14 394.21,760.89 388.09,753.86 378.23,762.42 383.30,768.23 385.95,765.94" type="building"/>
   <poly color="red" fill="1" id="199781996" layer="-1.00" shape="607.91,384.98 626.46,368.98 620.60,362.24 602.06,378.23 607.91,384.98" type="building"/>
   <poly color="red" fill="1" id="199979285" layer="-1.00" shape="627.51,352.79 634.32,360.34 636.18,362.28 637.06,361.44 655.54,344.77 646.92,335.28 627.51,352.79" type="building"/>
   <poly color="red" fill="1" id="199983194" layer="-1.00" shape="419.08,538.27 424.34,543.97 427.05,541.49 431.08,537.79 425.83,532.08 419.08,538.27" type="building"/>
   <poly color="red" fill="1" id="199983781" layer="-1.00" shape="439.67,519.15 446.80,526.91 456.07,518.43 448.94,510.67 439.67,519.15" type="building"/>
   <poly color="red" fill="1" id="200216771" layer="-1.00" shape="655.98,696.77 654.66,697.99 659.75,703.47 666.02,697.69 659.37,690.53 654.42,695.10 655.98,696.77" type="building"/>
   <poly color="red" fill="1" id="200219519" layer="-1.00" shape="679.68,680.29 687.03,673.66 679.33,665.18 672.54,671.31 675.45,674.51 674.90,675.01 679.68,680.29" type="building"/>
   <poly color="red" fill="1" id="200219586" layer="-1.00" shape="665.37,636.80 668.76,640.53 674.33,646.63 674.91,647.27 697.18,626.78 691.77,620.36 688.07,616.28 675.60,627.53 669.53,633.01 667.22,635.15 665.37,636.80" type="building"/>
   <poly color="red" fill="1" id="200220119" layer="-1.00" shape="712.27,632.19 720.46,641.21 727.21,635.12 723.03,630.50 719.03,626.10 712.27,632.19" type="building"/>
   <poly color="237,199,199" fill="1" id="200226176" layer="-1.00" shape="581.55,586.93 554.73,558.50 644.93,475.75 672.62,506.60 581.55,586.93" type="amenity"/>
   <poly color="red" fill="1" id="200293645" layer="-1.00" shape="602.86,313.31 607.63,308.84 604.24,305.26 599.47,309.74 602.86,313.31" type="building"/>
   <poly color="red" fill="1" id="200293646" layer="-1.00" shape="612.36,314.90 619.00,322.10 622.50,318.88 623.51,320.00 628.81,315.15 621.15,306.84 612.36,314.90" type="building"/>
   <poly color="red" fill="1" id="200296815" layer="-1.00" shape="814.63,29.18 836.96,7.04 853.80,23.94 857.68,27.73 850.13,53.99 844.73,59.35 814.63,29.18" type="building"/>
   <poly color="red" fill="1" id="200297951" layer="-1.00" shape="859.81,149.35" type="building"/>
   <poly color="red" fill="1" id="200310640" layer="-1.00" shape="541.49,635.54 547.15,641.88 555.07,634.85 552.71,632.20 555.53,629.70 552.22,626.01 541.49,635.54" type="building"/>
   <poly color="red" fill="1" id="200310642" layer="-1.00" shape="519.87,635.98 514.34,630.23 511.44,632.99 510.11,631.61 506.60,634.97 513.47,642.09 519.87,635.98" type="building"/>
   <poly color="red" fill="1" id="200310644" layer="-1.00" shape="517.37,601.36 519.78,603.97 515.92,607.50 532.44,625.46 541.70,616.99 535.99,610.77 539.55,607.51 526.35,593.15 517.37,601.36" type="building"/>
   <poly color="207,245,201" fill="1" id="200310644#1" layer="-2.00" shape="517.37,601.36 519.78,603.97 515.92,607.50 532.44,625.46 541.70,616.99 535.99,610.77 539.55,607.51 526.35,593.15 517.37,601.36" type="leisure"/>
   <poly color="79,230,125" fill="1" id="200310644#2" layer="-2.00" shape="517.37,601.36 519.78,603.97 515.92,607.50 532.44,625.46 541.70,616.99 535.99,610.77 539.55,607.51 526.35,593.15 517.37,601.36" type="sport"/>
   <poly color="red" fill="1" id="200319235" layer="-1.00" shape="577.61,675.17 583.51,681.88 587.41,678.49 588.33,679.53 590.39,677.73 589.27,676.45 592.30,673.80 586.61,667.32 577.61,675.17" type="building"/>
   <poly color="red" fill="1" id="200319236" layer="-1.00" shape="602.07,700.36 608.08,706.96 616.87,699.00 610.86,692.40 602.07,700.36" type="building"/>
   <poly color="red" fill="1" id="200319237" layer="-1.00" shape="589.48,688.66 595.46,695.27 605.24,686.49 607.55,689.04 610.79,686.13 612.12,684.95 608.86,681.34 606.94,683.06 603.02,678.73 599.10,682.26 597.99,681.02 589.48,688.66" type="building"/>
   <poly color="red" fill="1" id="200322984" layer="-1.00" shape="547.19,679.96 553.84,687.25 560.59,681.11 555.15,675.17 552.19,677.86 550.97,676.52 547.19,679.96" type="building"/>
   <poly color="red" fill="1" id="200322985" layer="-1.00" shape="523.23,653.25 528.68,659.24 535.28,653.26 529.83,647.28 523.23,653.25" type="building"/>
   <poly color="red" fill="1" id="200322986" layer="-1.00" shape="553.53,648.71 559.66,655.52 561.64,653.75 561.14,653.19 566.72,648.21 561.10,641.95 553.53,648.71" type="building"/>
   <poly color="red" fill="1" id="200322988" layer="-1.00" shape="535.96,667.35 541.34,673.13 547.86,667.11 542.48,661.33 535.96,667.35" type="building"/>
   <poly color="red" fill="1" id="200322990" layer="-1.00" shape="565.27,661.84 570.38,667.44 571.95,666.01 572.88,667.01 578.23,662.16 577.85,661.76 578.16,661.46 572.50,655.27 565.27,661.84" type="building"/>
   <poly color="red" fill="1" id="200322993" layer="-1.00" shape="557.60,632.93 559.80,635.38 564.85,630.86 562.65,628.42 557.60,632.93" type="building"/>
   <poly color="red" fill="1" id="200322994" layer="-1.00" shape="519.00,664.40 523.60,669.22 527.48,665.55 529.59,663.55 524.99,658.73 519.00,664.40" type="building"/>
   <poly color="red" fill="1" id="200324633" layer="-1.00" shape="487.71,613.48 494.27,607.53 488.71,601.44 485.53,604.34 484.45,603.15 481.07,606.21 487.71,613.48" type="building"/>
   <poly color="red" fill="1" id="200324635" layer="-1.00" shape="496.97,632.60 507.88,622.80 502.58,616.93 499.89,619.33 498.37,617.65 496.05,619.74 497.64,621.52 493.57,625.17 494.61,626.32 492.78,627.96 496.97,632.60" type="building"/>
   <poly color="red" fill="1" id="200330096" layer="-1.00" shape="542.79,706.86 544.93,709.06 548.47,705.63 546.34,703.43 542.79,706.86" type="building"/>
   <poly color="red" fill="1" id="200330097" layer="-1.00" shape="562.04,694.61 566.58,699.32 572.18,693.95 567.63,689.24 562.04,694.61" type="building"/>
   <poly color="red" fill="1" id="200330098" layer="-1.00" shape="562.66,711.17 565.42,713.91 570.42,709.21 567.81,706.48 562.66,711.17" type="building"/>
   <poly color="red" fill="1" id="200330099" layer="-1.00" shape="572.18,707.51 574.44,709.91 577.57,713.23 584.16,707.07 578.77,701.34 572.18,707.51" type="building"/>
   <poly color="red" fill="1" id="200330319" layer="-1.00" shape="580.79,719.72 582.57,721.68 581.60,722.57 583.42,724.55 584.41,723.66 586.39,725.84 594.45,718.57 588.88,712.42 580.79,719.72" type="building"/>
   <poly color="red" fill="1" id="200330320" layer="-1.00" shape="573.18,729.74 577.27,734.13 583.47,728.37 579.38,724.00 573.18,729.74" type="building"/>
   <poly color="red" fill="1" id="200356366" layer="-1.00" shape="428.82,586.50 431.04,589.02 436.49,584.26 434.28,581.74 428.82,586.50" type="building"/>
   <poly color="207,245,201" fill="1" id="200356366#1" layer="-2.00" shape="428.82,586.50 431.04,589.02 436.49,584.26 434.28,581.74 428.82,586.50" type="leisure"/>
   <poly color="red" fill="1" id="200356368" layer="-1.00" shape="431.71,558.43 434.04,560.95 443.76,552.04 438.34,546.16 435.29,548.96 434.02,550.12 431.26,552.64 434.35,556.01 431.71,558.43" type="building"/>
   <poly color="red" fill="1" id="200356369" layer="-1.00" shape="457.53,565.18 457.69,562.91 455.74,560.88 453.73,562.75 451.09,560.12 449.12,562.13 447.33,560.54 440.05,567.38 446.85,574.82 457.53,565.18" type="building"/>
   <poly color="red" fill="1" id="200357051" layer="-1.00" shape="472.79,602.43 481.79,593.94 476.25,588.11 467.25,596.59 468.38,597.80 469.54,599.01 472.79,602.43" type="building"/>
   <poly color="red" fill="1" id="200357414" layer="-1.00" shape="455.10,582.34 460.67,588.23 469.22,580.22 463.66,574.31 455.10,582.34" type="building"/>
   <poly color="red" fill="1" id="200357719" layer="-1.00" shape="493.72,582.42 501.59,575.14 499.36,572.76 501.77,570.52 497.96,566.43 487.68,575.95 493.72,582.42" type="building"/>
   <poly color="red" fill="1" id="200357720" layer="-1.00" shape="480.84,568.36 483.84,565.64 484.92,566.83 487.06,564.88 485.99,563.72 491.28,558.93 485.18,552.24 480.20,556.74 479.85,556.34 475.29,560.47 475.65,560.87 474.76,561.68 480.84,568.36" type="building"/>
   <poly color="red" fill="1" id="200358324" layer="-1.00" shape="387.98,106.59 393.97,113.44 400.43,107.81 394.45,100.98 387.98,106.59" type="building"/>
   <poly color="red" fill="1" id="200360582" layer="-1.00" shape="497.12,487.08 500.13,490.42 508.08,483.31 506.78,481.87 511.96,477.25 510.24,475.34 497.12,487.08" type="building"/>
   <poly color="red" fill="1" id="200409735" layer="-1.00" shape="587.16,610.74 578.76,601.28 572.64,606.69 576.93,611.51 565.35,621.73 569.45,626.35 574.00,622.37 578.24,618.56 587.16,610.74" type="building"/>
   <poly color="red" fill="1" id="200409736" layer="-1.00" shape="615.45,641.82 611.25,637.17 602.46,645.05 598.01,649.04 599.96,651.20 607.09,644.80 609.33,647.30 615.45,641.82" type="building"/>
   <poly color="red" fill="1" id="200409737" layer="-1.00" shape="611.25,637.17 607.09,632.56 601.17,637.87 603.54,640.51 600.68,643.09 602.46,645.05 611.25,637.17" type="building"/>
   <poly color="red" fill="1" id="200409738" layer="-1.00" shape="591.21,615.32 587.16,610.74 578.24,618.56 580.17,620.70 583.14,618.01 585.34,620.49 591.21,615.32" type="building"/>
   <poly color="red" fill="1" id="200410797" layer="-1.00" shape="571.69,593.41 566.60,587.96 556.23,597.61 561.32,603.06 571.69,593.41" type="building"/>
   <poly color="237,199,199" fill="1" id="200411166" layer="-1.00" shape="531.39,627.57 507.42,601.22 548.88,563.55 563.62,579.20 542.42,599.06 551.53,608.71 531.39,627.57" type="amenity"/>
   <poly color="red" fill="1" id="200411688" layer="-1.00" shape="635.31,663.96 631.11,659.40 625.31,664.72 627.67,667.28 622.27,672.24 620.37,673.97 622.22,675.98 626.55,672.00 635.31,663.96" type="building"/>
   <poly color="red" fill="1" id="200411689" layer="-1.00" shape="639.45,668.43 635.31,663.96 626.55,672.00 628.39,673.98 631.15,671.45 633.45,673.94 639.45,668.43" type="building"/>
   <poly color="red" fill="1" id="200425754" layer="-1.00" shape="558.62,552.77 564.37,547.35 560.14,542.89 554.39,548.31 558.62,552.77" type="building"/>
   <poly color="red" fill="1" id="200425756" layer="-1.00" shape="539.46,534.06 545.26,540.46 552.38,534.04 556.25,530.55 552.65,526.58 547.91,530.86 545.71,528.43 542.76,531.13 539.46,534.06" type="building"/>
   <poly color="red" fill="1" id="200425759" layer="-1.00" shape="554.10,535.92 552.38,534.04 545.26,540.46 548.36,543.87 554.23,538.58 552.85,537.05 554.10,535.92" type="building"/>
   <poly color="red" fill="1" id="200425763" layer="-1.00" shape="532.40,499.93 525.26,506.36 524.02,504.99 518.09,510.32 521.20,513.75 534.25,501.97 532.40,499.93" type="building"/>
   <poly color="red" fill="1" id="200425764" layer="-1.00" shape="521.20,513.75 527.63,520.84 533.60,515.47 528.95,510.35 536.04,503.95 534.25,501.97 521.20,513.75" type="building"/>
   <poly color="red" fill="1" id="200429919" layer="-1.00" shape="494.32,483.95 497.12,487.08 510.24,475.34 507.43,472.22 494.32,483.95" type="building"/>
   <poly color="red" fill="1" id="200500227" layer="-1.00" shape="520.56,672.49 524.59,676.71 527.82,673.65 523.79,669.42 520.56,672.49" type="building"/>
   <poly color="red" fill="1" id="200500228" layer="-1.00" shape="519.97,683.57 525.31,689.38 532.13,683.13 526.78,677.32 525.07,678.90 524.08,678.57 522.74,679.73 522.78,680.99 519.97,683.57" type="building"/>
   <poly color="red" fill="1" id="200500229" layer="-1.00" shape="541.87,686.11 545.81,682.37 543.59,680.04 544.85,678.85 543.21,677.12 538.00,682.06 541.87,686.11" type="building"/>
   <poly color="red" fill="1" id="200582628" layer="-1.00" shape="392.70,574.28 395.98,577.84 399.62,574.52 396.33,570.95 392.70,574.28" type="building"/>
   <poly color="red" fill="1" id="200582629" layer="-1.00" shape="451.26,535.54 455.91,540.56 454.93,541.46 456.06,542.68 456.89,541.92 457.43,542.51 466.37,534.30 460.04,527.46 451.26,535.54" type="building"/>
   <poly color="red" fill="1" id="200582630" layer="-1.00" shape="407.45,558.75 412.61,554.05 405.47,546.27 397.18,553.82 398.20,554.94 396.57,556.42 399.49,559.61 400.83,558.40 403.28,561.07 406.71,557.94 407.45,558.75" type="building"/>
   <poly color="red" fill="1" id="200582631" layer="-1.00" shape="423.58,563.61 420.04,559.81 412.93,566.39 412.34,565.75 409.01,568.84 411.95,571.99 411.82,573.45 414.92,576.75 416.52,576.92 418.58,574.89 423.56,570.26 423.60,569.09 425.82,566.95 423.23,564.15 423.58,563.61" type="building"/>
   <poly color="red" fill="1" id="200582632" layer="-1.00" shape="371.72,573.30 379.41,582.24 383.40,578.84 382.43,577.72 393.45,568.31 386.72,560.48 371.72,573.30" type="building"/>
   <poly color="red" fill="1" id="200582633" layer="-1.00" shape="414.24,622.18 420.24,628.90 431.59,618.81 425.60,612.10 414.24,622.18" type="building"/>
   <poly color="red" fill="1" id="200582634" layer="-1.00" shape="430.99,610.01 437.40,617.30 442.08,613.23 435.67,605.92 430.99,610.01" type="building"/>
   <poly color="red" fill="1" id="200582635" layer="-1.00" shape="463.30,548.75 469.64,555.76 478.50,547.79 472.15,540.78 463.30,548.75" type="building"/>
   <poly color="red" fill="1" id="200582636" layer="-1.00" shape="392.18,564.25 397.75,570.00 401.64,566.24 399.38,563.80 396.10,560.47 392.18,564.25" type="building"/>
   <poly color="red" fill="1" id="200582640" layer="-1.00" shape="425.94,635.30 430.93,641.04 435.92,636.89 436.92,637.01 437.94,635.85 437.15,635.13 439.06,633.14 434.40,627.96 425.94,635.30" type="building"/>
   <poly color="red" fill="1" id="200582642" layer="-1.00" shape="407.20,614.30 417.96,604.71 410.63,596.54 406.59,600.14 408.73,602.54 402.02,608.52 407.20,614.30" type="building"/>
   <poly color="red" fill="1" id="200583877" layer="-1.00" shape="509.95,455.65 516.33,462.88 530.06,450.83 523.69,443.60 509.95,455.65" type="building"/>
   <poly color="red" fill="1" id="200583879" layer="-1.00" shape="541.50,448.81 554.63,436.82 553.35,435.58 553.81,433.87 549.82,429.96 549.52,430.22 544.17,434.85 535.54,442.90 541.50,448.81" type="building"/>
   <poly color="red" fill="1" id="200584787" layer="-1.00" shape="497.25,706.82 503.02,712.93 505.93,710.21 513.18,703.38 507.41,697.28 497.25,706.82" type="building"/>
   <poly color="red" fill="1" id="200584788" layer="-1.00" shape="449.59,662.19 455.15,667.93 463.86,659.54 462.46,658.11 463.61,656.99 460.63,653.90 459.61,654.87 458.45,653.67 449.59,662.19" type="building"/>
   <poly color="red" fill="1" id="200584789" layer="-1.00" shape="510.24,690.32 514.05,693.94 517.89,689.92 514.09,686.30 510.24,690.32" type="building"/>
   <poly color="red" fill="1" id="200584790" layer="-1.00" shape="514.76,699.61 518.49,703.58 525.73,696.77 522.00,692.82 514.76,699.61" type="building"/>
   <poly color="red" fill="1" id="200584791" layer="-1.00" shape="461.75,676.01 466.95,681.66 476.57,672.87 471.37,667.21 461.75,676.01" type="building"/>
   <poly color="red" fill="1" id="200584792" layer="-1.00" shape="438.10,648.93 443.10,654.57 452.80,646.02 447.80,640.38 438.10,648.93" type="building"/>
   <poly color="red" fill="1" id="200585834" layer="-1.00" shape="543.20,720.25 545.38,722.34 548.02,719.59 545.84,717.50 543.20,720.25" type="building"/>
   <poly color="red" fill="1" id="200585835" layer="-1.00" shape="511.78,716.80 517.45,722.45 526.30,714.36 525.17,713.13 525.31,710.79 521.74,706.82 515.61,712.02 516.49,712.78 511.78,716.80" type="building"/>
   <poly color="red" fill="1" id="200585836" layer="-1.00" shape="540.74,735.90 545.62,740.95 554.54,732.40 549.66,727.33 540.74,735.90" type="building"/>
   <poly color="red" fill="1" id="200585837" layer="-1.00" shape="556.23,728.40 559.88,732.14 563.64,728.49 559.98,724.75 556.23,728.40" type="building"/>