<?xml version="1.0" encoding="utf-8"?><!-- generated on 10/11/17 17:53:19 by SUMO polyconvert Version 0.25.0
<?xml version="1.0" encoding="UTF-8"?>

<configuration xmlns:xsi="http://www.w3.org/2001/XMLSchema-instance" xsi:noNamespaceSchemaLocation="http://sumo.dlr.de/xsd/polyconvertConfiguration.xsd">

    <input>
        <net-file value="FR_Rieselfeld_urban_800.net.xml"/>
        <osm-files value="FR_Rieselfeld_urban_800.osm"/>
        <type-file value="osmPolyconvert.typ.xml"/>
    </input>

    <output>
        <output-file value="FR_Rieselfeld_urban_800.poly.xml"/>
    </output>

    <projection>
        <proj.utm value="true"/>
    </projection>

    <processing>
        <poi-layer-offset value="5"/>
    </processing>

</configuration>
-->
<additional>
   <location convBoundary="-9.66,-5.26,868.11,856.36" netOffset="-409387.21,-5316519.25" origBoundary="7.785200,47.995607,7.796898,48.003299" projParameter="+proj=utm +zone=32 +ellps=WGS84 +datum=WGS84 +units=m +no_defs"/>
   <poly color="237,199,199" fill="1" id="100185342" layer="-1.00" shape="600.34,506.35 496.62,572.39 478.86,541.16 470.98,504.60 482.13,496.91 494.96,488.06 536.72,459.26 558.74,444.07 560.66,446.84 600.34,506.35" type="amenity"/>
   <poly color="red" fill="1" id="101156863" layer="-1.00" shape="860.72,370.67 812.02,402.60 817.15,410.39 865.85,378.46 860.72,370.67" type="building"/>
   <poly color="red" fill="1" id="101156864" layer="-1.00" shape="667.92,575.31 678.15,568.28 660.19,542.33 649.97,549.36 667.92,575.31" type="building"/>
   <poly color="red" fill="1" id="101156865" layer="-1.00" shape="755.76,439.83 762.73,450.31 808.96,419.66 801.99,409.19 755.76,439.83" type="building"/>
   <poly color="red" fill="1" id="101156866" layer="-1.00" shape="694.08,614.06 705.17,606.43 684.59,576.68 673.50,584.31 694.08,614.06" type="building"/>
   <poly color="red" fill="1" id="101156867" layer="-1.00" shape="831.72,504.33 806.93,539.66 819.03,548.09 844.54,511.46 831.72,504.33" type="building"/>
   <poly color="red" fill="1" id="101156868" layer="-1.00" shape="778.90,569.78 760.98,584.81 770.63,596.26 789.82,579.89 778.90,569.78" type="building"/>
   <poly color="red" fill="1" id="101156869" layer="-1.00" shape="766.85,530.22 778.13,522.74 750.31,481.02 739.03,488.50 766.85,530.22" type="building"/>
   <poly color="red" fill="1" id="101156870" layer="-1.00" shape="726.32,610.18 735.23,622.27 770.63,596.26 760.98,584.81 726.32,610.18" type="building"/>
   <poly color="red" fill="1" id="101156871" layer="-1.00" shape="775.33,464.03 803.19,504.14 814.17,496.55 786.30,456.45 775.33,464.03" type="building"/>
   <poly color="237,199,199" fill="1" id="101156872" layer="-1.00" shape="728.91,522.57 694.33,548.25 700.46,556.45 705.18,552.95 713.37,563.91 745.00,540.43 739.76,533.40 737.98,534.73 728.91,522.57" type="amenity"/>
   <poly color="red" fill="1" id="101156872#1" layer="-1.00" shape="728.91,522.57 694.33,548.25 700.46,556.45 705.18,552.95 713.37,563.91 745.00,540.43 739.76,533.40 737.98,534.73 728.91,522.57" type="building"/>
   <poly color="207,245,201" fill="1" id="101156873" layer="-2.00" shape="594.14,727.05 692.21,660.99 689.29,656.69 591.23,722.74 594.14,727.05" type="leisure"/>
   <poly color="79,230,125" fill="1" id="101156873#1" layer="-2.00" shape="594.14,727.05 692.21,660.99 689.29,656.69 591.23,722.74 594.14,727.05" type="sport"/>
   <poly color="red" fill="1" id="101156874" layer="-1.00" shape="632.48,523.45 640.01,534.56 687.02,502.87 679.49,491.76 632.48,523.45" type="building"/>
   <poly color="red" fill="1" id="101156875" layer="-1.00" shape="840.76,488.19 831.72,504.33 844.54,511.46 854.23,494.86 840.76,488.19" type="building"/>
   <poly color="red" fill="0" id="101156876" layer="-1.00" shape="861.00,445.77 840.76,488.19 854.23,494.86" type="building"/>
   <poly color="red" fill="1" id="101156877" layer="-1.00" shape="806.93,539.66 778.90,569.78 789.82,579.89 819.03,548.09 806.93,539.66" type="building"/>
   <poly color="red" fill="1" id="101156878" layer="-1.00" shape="688.27,485.73 695.97,496.89 742.76,464.79 735.07,453.63 688.27,485.73" type="building"/>
   <poly color="red" fill="1" id="101156879" layer="-1.00" shape="709.87,638.66 724.29,628.74 714.09,613.99 699.67,623.90 709.87,638.66" type="building"/>
   <poly color="194,194,130" fill="0" id="107542778" layer="-3.00" shape="-2.39,494.11 32.55,603.43 166.61,808.98 169.94,813.67" type="landuse"/>
   <poly color="red" fill="1" id="116781565" layer="-1.00" shape="435.13,232.03 439.94,238.90 444.90,245.96 454.99,238.92 445.22,224.99 435.13,232.03" type="building"/>
   <poly color="red" fill="1" id="116781566" layer="-1.00" shape="784.02,52.71 808.15,46.35 804.62,33.02 792.07,36.32 780.48,39.38 784.02,52.71" type="building"/>
   <poly color="red" fill="1" id="116781567" layer="-1.00" shape="444.90,245.96 449.74,252.86 454.67,259.89 464.77,252.85 454.99,238.92 444.90,245.96" type="building"/>
   <poly color="red" fill="1" id="116781568" layer="-1.00" shape="755.83,59.52 779.76,53.59 776.49,40.51 763.76,43.67 752.56,46.44 755.83,59.52" type="building"/>
   <poly color="red" fill="1" id="116781569" layer="-1.00" shape="671.60,266.30 670.18,264.35 658.61,272.76 668.82,286.72 680.42,278.28 677.58,274.39 671.60,266.30" type="building"/>
   <poly color="red" fill="1" id="116781570" layer="-1.00" shape="630.54,83.66 617.20,87.69 600.59,92.72 604.56,105.72 634.49,96.67 630.54,83.66" type="building"/>
   <poly color="red" fill="1" id="116781571" layer="-1.00" shape="677.47,299.86 667.65,306.73 662.75,299.77 656.69,290.41 655.00,290.47 647.89,280.34 658.61,272.76 668.82,286.72 677.47,299.86" type="building"/>
   <poly color="red" fill="1" id="116781572" layer="-1.00" shape="600.59,92.72 580.39,98.83 570.58,101.79 574.55,114.80 604.56,105.72 600.59,92.72" type="building"/>
   <poly color="red" fill="1" id="116781573" layer="-1.00" shape="426.18,160.41 485.35,141.81 480.43,126.27 450.52,135.67 421.27,144.86 426.18,160.41" type="building"/>
   <poly color="red" fill="1" id="116781574" layer="-1.00" shape="667.65,306.73 673.83,315.51 677.35,320.52 687.17,313.65 677.47,299.86 667.65,306.73" type="building"/>
   <poly color="red" fill="1" id="116781575" layer="-1.00" shape="420.89,250.45 409.73,257.89 399.28,242.74 410.27,234.81 416.89,244.34 420.89,250.45" type="building"/>
   <poly color="red" fill="1" id="116781576" layer="-1.00" shape="677.35,320.52 681.91,326.99 686.91,334.10 696.72,327.22 687.17,313.65 677.35,320.52" type="building"/>
   <poly color="red" fill="1" id="116781577" layer="-1.00" shape="420.89,250.45 409.73,257.89 417.43,270.05 411.78,273.73 419.53,285.20 436.44,274.14 428.41,261.90 420.89,250.45" type="building"/>
   <poly color="red" fill="1" id="116781578" layer="-1.00" shape="425.36,218.09 430.57,225.54 435.13,232.03 445.22,224.99 435.45,211.05 425.36,218.09" type="building"/>
   <poly color="red" fill="1" id="116781579" layer="-1.00" shape="419.53,285.20 411.78,273.73 405.46,277.97 404.26,276.21 396.31,281.55 397.15,282.80 390.90,287.01 399.00,298.98 409.68,291.81 419.53,285.20" type="building"/>
   <poly color="red" fill="1" id="116781584" layer="-1.00" shape="504.24,310.76 492.77,294.27 482.68,301.60 494.11,318.05 504.24,310.76" type="building"/>
   <poly color="red" fill="1" id="116781585" layer="-1.00" shape="670.76,167.46 683.11,159.22 673.77,145.30 672.23,146.33 671.19,144.77 667.83,147.01 668.81,148.46 665.50,150.67 664.50,149.16 661.84,150.93 662.82,152.38 661.43,153.30 661.99,154.15 661.29,154.61 661.86,155.47 662.45,155.07 670.76,167.46" type="building"/>
   <poly color="red" fill="1" id="116781586" layer="-1.00" shape="631.92,188.71 642.95,181.42 642.29,180.42 643.84,179.40 641.51,175.89 639.96,176.90 637.48,173.17 638.76,172.34 636.98,169.67 635.71,170.50 634.90,169.28 630.28,172.32 628.71,169.95 624.99,172.40 626.46,174.62 623.76,176.41 631.92,188.71" type="building"/>
   <poly color="red" fill="1" id="116781587" layer="-1.00" shape="652.24,179.04 656.63,175.97 655.08,173.76 662.41,168.64 661.79,167.77 663.21,166.78 661.10,163.78 659.79,164.69 654.74,157.52 653.44,158.43 652.14,156.57 649.52,158.40 650.70,160.08 647.38,162.40 646.38,160.98 643.37,163.07 644.38,164.50 642.79,165.62 652.24,179.04" type="building"/>
   <poly color="red" fill="1" id="116781588" layer="-1.00" shape="763.63,95.51 758.02,99.73 764.48,108.28 770.08,104.06 763.63,95.51" type="building"/>
   <poly color="red" fill="1" id="116781589" layer="-1.00" shape="569.92,214.88 579.90,229.91 569.33,237.02 559.48,221.82 569.92,214.88" type="building"/>
   <poly color="red" fill="1" id="116781590" layer="-1.00" shape="600.52,328.61 610.85,321.35 603.89,311.49 599.73,314.43 595.77,317.46 593.55,318.76 600.52,328.61" type="building"/>
   <poly color="red" fill="1" id="116781591" layer="-1.00" shape="643.12,340.77 652.97,354.69 663.05,347.61 653.21,333.69 643.12,340.77" type="building"/>
   <poly color="red" fill="1" id="116781592" layer="-1.00" shape="608.76,383.57 619.03,376.49 611.77,366.01 605.36,370.42 601.50,373.09 608.76,383.57" type="building"/>
   <poly color="red" fill="1" id="116781593" layer="-1.00" shape="812.11,72.71 816.49,70.21 811.99,61.41 806.67,65.27 812.11,72.71" type="building"/>
   <poly color="red" fill="1" id="116781594" layer="-1.00" shape="560.84,127.96 547.96,108.65 537.24,115.75 550.11,135.06 560.84,127.96" type="building"/>
   <poly color="red" fill="1" id="116781595" layer="-1.00" shape="786.02,91.65 791.63,87.45 785.46,79.24 779.84,83.44 786.02,91.65" type="building"/>
   <poly color="red" fill="1" id="116781596" layer="-1.00" shape="507.17,223.04 530.81,206.67 522.86,195.24 499.21,211.61 507.17,223.04" type="building"/>
   <poly color="red" fill="1" id="116781597" layer="-1.00" shape="808.28,75.28 800.47,64.89 796.06,68.19 803.86,78.58 808.28,75.28" type="building"/>
   <poly color="red" fill="1" id="116781598" layer="-1.00" shape="619.03,376.49 635.17,365.39 627.91,354.91 611.77,366.01 619.03,376.49" type="building"/>
   <poly color="red" fill="1" id="116781601" layer="-1.00" shape="705.58,307.86 711.92,317.09 738.96,298.60 732.62,289.37 705.58,307.86" type="building"/>
   <poly color="red" fill="1" id="116781602" layer="-1.00" shape="588.21,397.71 598.48,390.63 591.23,380.16 580.95,387.23 588.21,397.71" type="building"/>
   <poly color="red" fill="1" id="116781603" layer="-1.00" shape="758.02,99.73 752.42,103.94 758.87,112.48 764.48,108.28 758.02,99.73" type="building"/>
   <poly color="red" fill="1" id="116781605" layer="-1.00" shape="579.90,229.91 589.58,243.99 579.67,251.27 569.33,237.02 579.90,229.91" type="building"/>
   <poly color="red" fill="1" id="116781606" layer="-1.00" shape="774.79,100.05 780.40,95.85 774.23,87.65 768.62,91.85 774.79,100.05" type="building"/>
   <poly color="red" fill="1" id="116781607" layer="-1.00" shape="791.63,87.45 797.25,83.26 791.07,75.05 785.46,79.24 791.63,87.45" type="building"/>
   <poly color="red" fill="1" id="116781610" layer="-1.00" shape="633.74,327.50 643.12,340.77 653.21,333.69 643.82,320.42 633.74,327.50" type="building"/>
   <poly color="red" fill="1" id="116781611" layer="-1.00" shape="752.42,103.94 746.81,108.15 753.26,116.69 758.87,112.48 752.42,103.94" type="building"/>
   <poly color="red" fill="1" id="116781612" layer="-1.00" shape="598.48,390.63 608.76,383.57 601.50,373.09 591.23,380.16 598.48,390.63" type="building"/>
   <poly color="red" fill="1" id="116781614" layer="-1.00" shape="584.74,339.70 600.52,328.61 593.55,318.76 577.79,329.85 584.74,339.70" type="building"/>
   <poly color="red" fill="1" id="116781616" layer="-1.00" shape="780.40,95.85 786.02,91.65 779.84,83.44 774.23,87.65 780.40,95.85" type="building"/>
   <poly color="red" fill="1" id="116781618" layer="-1.00" shape="482.36,240.20 507.17,223.04 499.21,211.61 474.41,228.79 482.36,240.20" type="building"/>
   <poly color="red" fill="1" id="116781619" layer="-1.00" shape="797.25,83.26 802.86,79.06 796.69,70.85 791.07,75.05 797.25,83.26" type="building"/>
   <poly color="red" fill="1" id="116781620" layer="-1.00" shape="537.22,252.57 551.06,243.24 544.24,233.20 536.94,238.12 530.40,242.53 537.22,252.57" type="building"/>
   <poly color="red" fill="1" id="116781621" layer="-1.00" shape="507.93,271.60 521.77,262.26 514.95,252.22 507.79,257.05 501.11,261.55 507.93,271.60" type="building"/>
   <poly color="red" fill="1" id="116781622" layer="-1.00" shape="603.89,311.49 610.85,321.35 623.23,312.65 633.74,327.50 643.82,320.42 626.35,295.71 603.89,311.49" type="building"/>
   <poly color="red" fill="1" id="116781624" layer="-1.00" shape="369.00,207.98 372.57,206.23 386.91,228.71 396.89,222.39 377.28,191.62 363.97,199.04 369.00,207.98" type="building"/>
   <poly color="red" fill="1" id="116781625" layer="-1.00" shape="363.97,199.04 328.55,216.40 342.67,258.79 353.73,255.14 342.37,221.03 369.00,207.98 363.97,199.04" type="building"/>
   <poly color="red" fill="1" id="116781626" layer="-1.00" shape="521.77,262.26 526.58,260.46 537.22,252.57 530.40,242.53 519.51,250.59 514.95,252.22 521.77,262.26" type="building"/>
   <poly color="red" fill="1" id="116781628" layer="-1.00" shape="706.64,236.75 681.25,256.09 692.69,271.74 702.47,264.63 699.22,260.19 703.09,257.38 706.15,261.57 718.07,253.16 706.64,236.75" type="building"/>
   <poly color="207,245,201" fill="1" id="116783063" layer="-2.00" shape="591.52,717.59 594.40,715.67 569.32,680.09 566.49,682.08 591.52,717.59" type="leisure"/>
   <poly color="79,230,125" fill="1" id="116783063#1" layer="-2.00" shape="591.52,717.59 594.40,715.67 569.32,680.09 566.49,682.08 591.52,717.59" type="sport"/>
   <poly color="207,245,201" fill="1" id="116783064" layer="-2.00" shape="569.32,680.09 565.71,674.96 562.88,676.95 566.49,682.08 569.32,680.09" type="leisure"/>
   <poly color="79,230,125" fill="1" id="116783064#1" layer="-2.00" shape="569.32,680.09 565.71,674.96 562.88,676.95 566.49,682.08 569.32,680.09" type="sport"/>
   <poly color="red" fill="1" id="116838170" layer="-1.00" shape="572.28,354.74 570.04,351.57 572.05,350.15 571.33,349.12 564.37,339.27 551.00,348.66 552.61,350.94 558.82,359.71 560.40,358.60 562.79,356.92 564.91,359.92 572.28,354.74" type="building"/>
   <poly color="red" fill="1" id="116838172" layer="-1.00" shape="558.82,359.71 552.61,350.94 546.66,355.13 540.75,359.28 546.99,368.13 549.34,371.42 562.79,361.97 560.40,358.60 558.82,359.71" type="building"/>
   <poly color="red" fill="1" id="116838173" layer="-1.00" shape="544.01,387.46 552.92,381.19 544.77,369.68 546.99,368.13 540.75,359.28 529.62,367.11 533.66,372.83 544.01,387.46" type="building"/>
   <poly color="red" fill="1" id="116838174" layer="-1.00" shape="544.01,387.46 549.54,395.29 554.37,402.12 563.28,395.86 557.76,388.05 552.92,381.19 544.01,387.46" type="building"/>
   <poly color="red" fill="1" id="116838175" layer="-1.00" shape="554.37,402.12 558.55,408.03 562.76,413.98 571.67,407.73 563.28,395.86 554.37,402.12" type="building"/>
   <poly color="red" fill="1" id="123753361" layer="-1.00" shape="262.45,503.83 274.15,496.25 237.54,440.02 225.84,447.58 254.23,491.20 261.08,501.72 262.45,503.83" type="building"/>
   <poly color="red" fill="1" id="123753362" layer="-1.00" shape="239.73,559.19 246.36,570.03 261.33,560.91 254.69,550.07 239.73,559.19" type="building"/>
   <poly color="red" fill="1" id="123753363" layer="-1.00" shape="150.63,534.40 164.18,524.87 147.74,500.14 134.30,509.55 150.63,534.40" type="building"/>
   <poly color="red" fill="1" id="123753364" layer="-1.00" shape="218.76,528.71 261.08,501.72 254.23,491.20 212.28,517.12 218.76,528.71" type="building"/>
   <poly color="red" fill="1" id="123753365" layer="-1.00" shape="164.43,506.02 180.58,495.92 172.31,482.79 156.16,492.89 164.43,506.02" type="building"/>
   <poly color="red" fill="1" id="123753366" layer="-1.00" shape="205.55,477.21 219.30,468.66 210.95,455.30 197.20,463.84 205.55,477.21" type="building"/>
   <poly color="red" fill="1" id="123753367" layer="-1.00" shape="254.69,550.07 261.33,560.91 278.18,551.09 271.53,540.46 254.69,550.07" type="building"/>
   <poly color="red" fill="1" id="123753368" layer="-1.00" shape="203.29,582.21 209.40,592.25 222.42,584.36 216.31,574.33 203.29,582.21" type="building"/>
   <poly color="red" fill="1" id="123753369" layer="-1.00" shape="167.62,559.15 209.73,532.66 202.21,520.78 160.10,547.26 167.62,559.15" type="building"/>
   <poly color="red" fill="1" id="123753370" layer="-1.00" shape="222.42,584.36 236.08,576.11 229.97,566.07 216.31,574.33 222.42,584.36" type="building"/>
   <poly color="red" fill="1" id="123753371" layer="-1.00" shape="190.54,589.92 196.65,599.97 209.40,592.25 203.29,582.21 190.54,589.92" type="building"/>
   <poly color="red" fill="1" id="123753372" layer="-1.00" shape="186.52,490.72 200.95,481.41 192.86,468.96 178.43,478.27 186.52,490.72" type="building"/>
   <poly color="red" fill="1" id="123770671" layer="-1.00" shape="246.22,710.27 236.78,716.65 251.06,737.65 260.50,731.28 246.22,710.27" type="building"/>
   <poly color="red" fill="1" id="123770672" layer="-1.00" shape="244.14,850.33 281.08,824.39 274.09,814.49 237.14,840.43 244.14,850.33" type="building"/>
   <poly color="red" fill="1" id="123770673" layer="-1.00" shape="321.46,796.55 329.61,791.04 316.60,771.91 308.45,777.42 321.46,796.55" type="building"/>
   <poly color="red" fill="1" id="123770674" layer="-1.00" shape="305.25,700.17 317.52,692.06 308.53,678.55 296.27,686.66 305.25,700.17" type="building"/>
   <poly color="red" fill="1" id="123770675" layer="-1.00" shape="418.99,815.98 427.10,827.92 463.13,803.57 455.02,791.64 418.99,815.98" type="building"/>
   <poly color="red" fill="1" id="123770676" layer="-1.00" shape="249.50,677.78 269.23,663.95 260.73,651.89 241.00,665.71 249.50,677.78" type="building"/>
   <poly color="red" fill="1" id="123770678" layer="-1.00" shape="455.87,735.23 472.37,730.10 467.62,714.89 451.12,720.02 455.87,735.23" type="building"/>
   <poly color="red" fill="1" id="123770681" layer="-1.00" shape="194.77,768.21 231.18,743.60 222.80,731.28 186.40,755.89 194.77,768.21" type="building"/>
   <poly color="red" fill="1" id="123770682" layer="-1.00" shape="294.36,816.77 303.91,810.28 289.98,789.91 280.23,796.09 294.36,816.77" type="building"/>
   <poly color="red" fill="1" id="123770683" layer="-1.00" shape="383.17,855.56 420.05,830.85 413.39,820.97 376.51,845.69 383.17,855.56" type="building"/>
   <poly color="red" fill="1" id="123770684" layer="-1.00" shape="348.58,672.05 361.04,663.56 351.61,649.83 339.15,658.32 348.58,672.05" type="building"/>
   <poly color="red" fill="1" id="123770685" layer="-1.00" shape="224.16,646.34 234.49,639.48 214.06,608.92 203.74,615.77 224.16,646.34" type="building"/>
   <poly color="red" fill="1" id="123770686" layer="-1.00" shape="294.44,599.52 308.01,590.03 299.53,577.97 285.96,587.46 294.44,599.52" type="building"/>
   <poly color="red" fill="1" id="123770687" layer="-1.00" shape="275.10,642.81 283.23,654.86 323.85,627.58 315.71,615.54 275.10,642.81" type="building"/>
   <poly color="red" fill="1" id="123770688" layer="-1.00" shape="347.96,783.02 394.69,749.62 387.46,739.56 340.73,772.96 347.96,783.02" type="building"/>
   <poly color="red" fill="1" id="123770689" layer="-1.00" shape="329.81,575.71 311.29,546.29 309.73,547.18 298.85,553.96 318.59,583.36 329.81,575.71" type="building"/>
   <poly color="red" fill="1" id="123770690" layer="-1.00" shape="326.90,686.69 338.97,678.59 329.95,665.24 317.88,673.35 326.90,686.69" type="building"/>
   <poly color="red" fill="1" id="123770691" layer="-1.00" shape="483.94,769.24 466.91,775.29 472.97,792.27 490.01,786.23 483.94,769.24" type="building"/>
   <poly color="red" fill="1" id="123770692" layer="-1.00" shape="420.98,682.31 452.55,660.67 445.50,650.72 414.37,671.90 420.98,682.31" type="building"/>
   <poly color="red" fill="1" id="123770695" layer="-1.00" shape="340.72,739.31 374.66,716.61 366.79,704.91 332.86,727.61 340.72,739.31" type="building"/>
   <poly color="red" fill="1" id="123770696" layer="-1.00" shape="253.71,625.64 266.73,616.94 257.93,603.83 244.90,612.53 253.71,625.64" type="building"/>
   <poly color="red" fill="1" id="123770697" layer="-1.00" shape="215.09,685.88 225.94,702.01 235.75,695.44 224.90,679.32 215.09,685.88" type="building"/>
   <poly color="red" fill="1" id="123770699" layer="-1.00" shape="355.62,589.26 363.09,600.80 384.54,584.52 377.11,573.83 355.62,589.26" type="building"/>
   <poly color="red" fill="1" id="123770700" layer="-1.00" shape="404.97,744.40 437.06,722.75 429.64,711.81 397.55,733.46 404.97,744.40" type="building"/>
   <poly color="red" fill="1" id="123770701" layer="-1.00" shape="278.45,720.76 290.77,712.45 271.34,683.79 259.02,692.10 278.45,720.76" type="building"/>
   <poly color="red" fill="1" id="123770703" layer="-1.00" shape="217.61,817.54 251.21,795.01 243.70,783.88 210.10,806.42 217.61,817.54" type="building"/>
   <poly color="red" fill="1" id="123770704" layer="-1.00" shape="380.35,709.14 417.15,684.55 410.42,674.53 373.62,699.11 380.35,709.14" type="building"/>
   <poly color="red" fill="1" id="123770706" layer="-1.00" shape="389.21,642.37 406.37,630.74 404.44,627.91 416.96,619.43 419.82,623.63 433.37,614.45 424.67,601.70 421.00,604.19 413.95,593.85 376.84,619.03 382.20,626.91 379.79,628.55 389.21,642.37" type="building"/>
   <poly color="red" fill="1" id="123770708" layer="-1.00" shape="481.88,757.56 476.53,741.58 459.03,747.41 464.39,763.39 481.88,757.56" type="building"/>
   <poly color="red" fill="1" id="123770712" layer="-1.00" shape="332.52,605.08 339.68,616.03 363.09,600.80 355.62,589.26 332.52,605.08" type="building"/>
   <poly color="red" fill="1" id="123770713" layer="-1.00" shape="196.34,695.79 163.74,717.84 172.82,731.19 205.43,709.14 196.34,695.79" type="building"/>
   <poly color="red" fill="1" id="123770714" layer="-1.00" shape="303.47,763.01 331.70,743.93 323.99,732.60 295.77,751.68 303.47,763.01" type="building"/>
   <poly color="red" fill="1" id="123770715" layer="-1.00" shape="255.79,791.26 285.83,771.48 278.69,760.71 248.65,780.49 255.79,791.26" type="building"/>
   <poly color="red" fill="1" id="123770717" layer="-1.00" shape="447.11,706.87 463.30,700.99 457.96,686.37 441.77,692.25 447.11,706.87" type="building"/>
   <poly color="red" fill="1" id="123770718" layer="-1.00" shape="273.26,611.17 287.45,602.65 279.41,589.35 265.22,597.87 273.26,611.17" type="building"/>
   <poly color="red" fill="1" id="158190993" layer="-1.00" shape="126.50,659.85 123.64,660.69 119.55,660.14 116.63,659.72 113.51,658.36 110.24,656.28 107.90,653.77 105.92,651.33 104.38,648.34 103.49,644.80 103.37,641.44 103.64,637.66 127.04,623.68 128.01,628.53 141.74,619.38 141.31,643.88 140.77,646.88 139.09,650.83 136.66,653.67 133.67,656.56 130.73,658.55 126.50,659.85" type="building"/>
   <poly color="red" fill="1" id="165736975" layer="-1.00" shape="835.55,159.18 807.53,180.24 800.10,170.77 828.73,149.39 835.55,159.18" type="building"/>
   <poly color="red" fill="0" id="165736978" layer="-1.00" shape="859.93,125.86 860.86,128.74 856.21,132.87 854.64,130.17 838.86,142.32 848.50,154.79" type="building"/>
   <poly color="207,245,201" fill="1" id="165736988" layer="-2.00" shape="495.93,152.98 441.41,169.31 454.78,189.02 500.02,158.94 495.93,152.98" type="leisure"/>
   <poly color="red" fill="1" id="179101140" layer="-1.00" shape="818.96,244.98 809.21,251.32 861.47,329.70 818.96,244.98" type="building"/>
   <poly color="red" fill="1" id="179101141" layer="-1.00" shape="666.48,440.82 654.53,449.49 663.64,461.96 675.59,453.29 666.48,440.82" type="building"/>
   <poly color="red" fill="1" id="179101142" layer="-1.00" shape="801.73,288.52 791.37,295.32 827.76,350.38 838.10,343.60 801.73,288.52" type="building"/>
   <poly color="red" fill="1" id="179101143" layer="-1.00" shape="684.21,429.04 672.25,437.71 681.35,450.19 693.31,441.52 684.21,429.04" type="building"/>
   <poly color="red" fill="1" id="179101144" layer="-1.00" shape="789.02,298.15 744.92,327.59 752.06,338.20 796.16,308.78 789.02,298.15" type="building"/>
   <poly color="red" fill="1" id="179101145" layer="-1.00" shape="612.87,432.03 641.37,412.87 634.79,403.14 606.29,422.29 612.87,432.03" type="building"/>
   <poly color="red" fill="1" id="179101146" layer="-1.00" shape="657.49,410.55 652.80,413.83 656.31,418.83 661.00,415.56 657.49,410.55" type="building"/>
   <poly color="red" fill="1" id="179101147" layer="-1.00" shape="718.26,370.41 711.40,375.16 713.83,378.64 720.69,373.90 718.26,370.41" type="building"/>
   <poly color="red" fill="1" id="179101149" layer="-1.00" shape="608.84,458.04 596.43,466.49 616.33,495.54 628.74,487.08 608.84,458.04" type="building"/>
   <poly color="red" fill="1" id="179101150" layer="-1.00" shape="644.70,455.14 632.75,463.81 641.85,476.29 653.81,467.62 644.70,455.14" type="building"/>
   <poly color="red" fill="1" id="179101151" layer="-1.00" shape="749.44,348.98 742.63,353.49 745.20,357.33 752.00,352.83 749.44,348.98" type="building"/>
   <poly color="red" fill="1" id="179101152" layer="-1.00" shape="804.20,347.03 792.82,354.24 800.35,366.03 811.72,358.82 804.20,347.03" type="building"/>
   <poly color="red" fill="1" id="179101155" layer="-1.00" shape="666.89,380.87 654.72,389.11 662.13,399.77 674.38,391.47 666.89,380.87" type="building"/>
   <poly color="red" fill="1" id="179101156" layer="-1.00" shape="706.25,412.16 697.20,399.11 687.00,406.14 696.06,419.19 706.25,412.16" type="building"/>
   <poly color="red" fill="1" id="183626943" layer="-1.00" shape="842.33,188.90 848.52,197.97 851.98,196.13 855.98,196.08 856.19,199.13 852.96,199.18 850.09,201.00 853.32,205.80 835.29,218.04 823.37,201.51 842.33,188.90" type="building"/>
   <poly color="red" fill="1" id="183626944" layer="-1.00" shape="769.45,130.54 761.03,136.40 754.01,141.28 750.10,135.69 749.35,136.33 740.57,142.28 748.30,153.32 747.35,153.98 754.93,164.80 765.72,157.30 761.41,151.13 768.33,146.32 776.51,140.64 769.45,130.54" type="building"/>
   <poly color="red" fill="1" id="183626945" layer="-1.00" shape="707.68,95.70 685.78,63.86 743.31,49.91 746.26,61.53 718.89,68.39 716.15,70.51 712.29,71.56 711.13,67.22 701.75,69.55 704.79,74.14 706.75,72.84 717.90,88.86 707.68,95.70" type="building"/>
   <poly color="red" fill="1" id="183626947" layer="-1.00" shape="695.68,127.86 684.84,134.89 702.50,161.96 713.21,154.75 695.68,127.86" type="building"/>
   <poly color="red" fill="1" id="183626948" layer="-1.00" shape="782.86,213.87 802.51,242.49 812.05,235.98 792.40,207.36 782.86,213.87" type="building"/>
   <poly color="red" fill="0" id="183626950" layer="-1.00" shape="857.52,394.78 860.92,399.83" type="building"/>
   <poly color="red" fill="1" id="183626951" layer="-1.00" shape="801.76,106.28 769.45,130.54 776.51,140.64 809.26,116.44 801.76,106.28" type="building"/>
   <poly color="red" fill="1" id="183626952" layer="-1.00" shape="860.10,400.65 856.70,395.60 844.48,403.81 847.87,408.84 860.10,400.65" type="building"/>
   <poly color="red" fill="1" id="183626956" layer="-1.00" shape="717.50,110.11 707.68,95.70 717.90,88.86 727.59,103.44 717.50,110.11" type="building"/>
   <poly color="red" fill="1" id="183626957" layer="-1.00" shape="842.13,412.45 838.70,407.49 822.43,418.68 825.86,423.64 842.13,412.45" type="building"/>
   <poly color="red" fill="1" id="183626958" layer="-1.00" shape="784.24,360.63 773.23,368.41 781.35,379.81 792.35,372.04 784.24,360.63" type="building"/>
   <poly color="red" fill="1" id="183626959" layer="-1.00" shape="726.83,124.10 717.50,110.11 727.59,103.44 736.91,117.43 726.83,124.10" type="building"/>
   <poly color="red" fill="1" id="183626960" layer="-1.00" shape="828.11,87.48 801.76,106.28 809.26,116.44 835.52,97.88 828.11,87.48" type="building"/>
   <poly color="red" fill="1" id="183626961" layer="-1.00" shape="740.57,142.28 739.91,142.72 726.83,124.10 736.91,117.43 749.35,136.33 740.57,142.28" type="building"/>
   <poly color="red" fill="0" id="183626962" layer="-1.00" shape="855.44,188.32 855.98,196.08 856.19,199.13 856.53,204.00" type="building"/>
   <poly color="red" fill="1" id="183629859" layer="-1.00" shape="550.11,135.06 564.36,155.74 575.84,148.22 560.84,127.96 550.11,135.06" type="building"/>
   <poly color="red" fill="1" id="183629860" layer="-1.00" shape="477.20,26.07 474.32,15.64 448.88,15.92 454.33,33.08 477.20,26.07" type="building"/>
   <poly color="red" fill="1" id="193375373" layer="-1.00" shape="45.76,535.00 75.29,514.57 68.29,504.52 38.76,524.94 45.76,535.00" type="building"/>
   <poly color="red" fill="1" id="193375374" layer="-1.00" shape="181.16,377.25 192.38,371.58 174.93,337.23 163.72,342.90 181.16,377.25" type="building"/>
   <poly color="red" fill="1" id="193377567" layer="-1.00" shape="361.46,103.07 377.00,98.11 374.92,91.62 391.04,86.46 392.94,92.40 409.59,87.08 403.39,67.80 355.09,83.25 361.46,103.07" type="building"/>
   <poly color="red" fill="1" id="193378562" layer="-1.00" shape="161.46,74.44 164.70,84.63 156.70,87.15 153.45,76.98 161.46,74.44" type="building"/>
   <poly color="red" fill="1" id="193378563" layer="-1.00" shape="153.53,77.08 156.66,87.20 150.12,89.20 146.99,79.09 153.53,77.08" type="building"/>
   <poly color="red" fill="1" id="193378564" layer="-1.00" shape="137.03,93.18 143.31,91.19 140.12,81.14 133.84,83.13 137.03,93.18" type="building"/>
   <poly color="red" fill="1" id="193378566" layer="-1.00" shape="171.10,82.61 164.76,84.59 161.57,74.49 167.92,72.50 171.10,82.61" type="building"/>
   <poly color="red" fill="1" id="193378567" layer="-1.00" shape="146.90,79.02 149.98,89.15 143.28,91.18 140.20,81.05 146.90,79.02" type="building"/>
   <poly color="red" fill="1" id="193382492" layer="-1.00" shape="780.37,758.04 794.11,750.76 762.10,701.74 750.04,709.37 780.37,758.04" type="building"/>
   <poly color="red" fill="1" id="193384048" layer="-1.00" shape="395.02,575.61 418.69,560.60 413.06,551.78 389.39,566.77 395.02,575.61" type="building"/>