<?xml version="1.0" encoding="utf-8"?><!-- generated on 10/11/17 17:53:14 by SUMO netconvert Version 0.25.0
<?xml version="1.0" encoding="UTF-8"?>

<configuration xmlns:xsi="http://www.w3.org/2001/XMLSchema-instance" xsi:noNamespaceSchemaLocation="http://sumo.dlr.de/xsd/netconvertConfiguration.xsd">

    <input>
        <type-files value="osmNetconvert.typ.xml"/>
        <osm-files value="FR_Rieselfeld_urban_800.osm"/>
    </input>

    <output>
        <output-file value="FR_Rieselfeld_urban_800.net.xml"/>
    </output>

    <projection>
        <proj.utm value="true"/>
    </projection>

    <edge_removal>
        <remove-edges.by-type value="highway.track,highway.unsurfaced,highway.raceway,highway.bridleway,highway.path,highway.footway,highway.pedestrian,highway.cycleway,highway.step,highway.steps,highway.stairs,highway.bus_guideway,highway.ford,railway.rail,railway.tram,railway.light_rail,railway.subway,railway.preserved,railway.narrow_gauge,railway.monorail,railway.funicular"/>
    </edge_removal>

</configuration>
-->
<net version="0.25">
   <location convBoundary="0.00,0.00,865.19,852.41" netOffset="-409387.21,-5316519.25" origBoundary="7.785210,47.995609,7.796896,48.003298" projParameter="+proj=utm +zone=32 +ellps=WGS84 +datum=WGS84 +units=m +no_defs"/>
   <type allow="pedestrian" id="highway.bridleway" numLanes="1" oneway="1" priority="1" speed="2.78" width="2.00"/>
   <type allow="bus" id="highway.bus_guideway" numLanes="1" oneway="1" priority="1" speed="8.33"/>
   <type allow="bicycle" id="highway.cycleway" numLanes="1" oneway="0" priority="1" speed="5.56" width="1.00"/>
   <type allow="pedestrian" id="highway.footway" numLanes="1" oneway="1" priority="1" speed="8.33" width="2.00"/>
   <type allow="army" id="highway.ford" numLanes="1" oneway="0" priority="1" speed="2.78"/>
   <type disallow="tram rail_urban rail rail_electric ship" id="highway.living_street" numLanes="1" oneway="0" priority="3" speed="2.78"/>
   <type allow="private emergency authority army vip passenger hov taxi bus coach delivery truck trailer motorcycle evehicle custom1 custom2" id="highway.motorway" numLanes="2" oneway="1" priority="13" speed="44.44"/>
   <type allow="private emergency authority army vip passenger hov taxi bus coach delivery truck trailer motorcycle evehicle custom1 custom2" id="highway.motorway_link" numLanes="1" oneway="1" priority="12" speed="22.22"/>
   <type allow="bicycle pedestrian" id="highway.path" numLanes="1" oneway="1" priority="1" speed="2.78" width="2.00"/>
   <type allow="pedestrian" id="highway.pedestrian" numLanes="1" oneway="1" priority="1" speed="8.33" width="2.00"/>
   <type disallow="tram rail_urban rail rail_electric ship" id="highway.primary" numLanes="2" oneway="0" priority="9" speed="27.78"/>
   <type disallow="tram rail_urban rail rail_electric ship" id="highway.primary_link" numLanes="1" oneway="0" priority="8" speed="22.22"/>
   <type allow="vip" id="highway.raceway" numLanes="2" oneway="0" priority="14" speed="83.33"/>
   <type disallow="tram rail_urban rail rail_electric ship" id="highway.residential" numLanes="1" oneway="0" priority="4" speed="13.89"/>
   <type disallow="tram rail_urban rail rail_electric ship" id="highway.secondary" numLanes="2" oneway="0" priority="7" speed="27.78"/>
   <type disallow="tram rail_urban rail rail_electric ship" id="highway.secondary_link" numLanes="1" oneway="0" priority="6" speed="22.22"/>
   <type allow="delivery bicycle pedestrian" id="highway.service" numLanes="1" oneway="0" priority="2" speed="5.56"/>
   <type disallow="tram rail_urban rail rail_electric ship" id="highway.services" numLanes="1" oneway="0" priority="1" speed="8.33"/>
   <type allow="delivery tram bicycle pedestrian" id="highway.service|railway.tram" numLanes="1" oneway="0" priority="15" speed="13.89"/>
   <type allow="pedestrian" id="highway.stairs" numLanes="1" oneway="1" priority="1" speed="1.39" width="2.00"/>
   <type allow="pedestrian" id="highway.step" numLanes="1" oneway="1" priority="1" speed="1.39" width="2.00"/>
   <type allow="pedestrian" id="highway.steps" numLanes="1" oneway="1" priority="1" speed="1.39" width="2.00"/>
   <type disallow="tram rail_urban rail rail_electric ship" id="highway.tertiary" numLanes="1" oneway="0" priority="6" speed="22.22"/>
   <type disallow="tram rail_urban rail rail_electric ship" id="highway.tertiary_link" numLanes="1" oneway="0" priority="5" speed="22.22"/>
   <type disallow="tram rail_urban rail rail_electric ship" id="highway.track" numLanes="1" oneway="0" priority="1" speed="5.56"/>
   <type disallow="tram rail_urban rail rail_electric bicycle pedestrian ship" id="highway.trunk" numLanes="2" oneway="0" priority="11" speed="27.78"/>
   <type disallow="tram rail_urban rail rail_electric bicycle pedestrian ship" id="highway.trunk_link" numLanes="1" oneway="0" priority="10" speed="22.22"/>
   <type disallow="tram rail_urban rail rail_electric ship" id="highway.unclassified" numLanes="1" oneway="0" priority="5" speed="13.89"/>
   <type disallow="tram rail_urban rail rail_electric ship" id="highway.unsurfaced" numLanes="1" oneway="0" priority="1" speed="8.33"/>
   <type allow="rail_urban" id="railway.light_rail" numLanes="1" oneway="1" priority="15" speed="27.78"/>
   <type allow="rail" id="railway.preserved" numLanes="1" oneway="1" priority="15" speed="27.78"/>
   <type allow="rail rail_electric" id="railway.rail" numLanes="1" oneway="1" priority="15" speed="83.33"/>
   <type allow="rail_urban" id="railway.subway" numLanes="1" oneway="1" priority="15" speed="27.78"/>
   <type allow="tram" id="railway.tram" numLanes="1" oneway="1" priority="15" speed="13.89"/>
   <edge function="internal" id=":1299761608_0">
      <lane allow="delivery bicycle pedestrian" id=":1299761608_0_0" index="0" length="0.10" shape="100.44,623.48 100.48,623.56" speed="5.56"/>
   </edge>
   <edge function="internal" id=":1299761608_1">
      <lane allow="delivery bicycle pedestrian" id=":1299761608_1_0" index="0" length="2.41" shape="100.44,623.48 100.64,622.01 101.20,621.28" speed="5.56"/>
   </edge>
   <edge function="internal" id=":1299761608_4">
      <lane id=":1299761608_4_0" index="0" length="2.41" shape="101.20,621.28 102.12,621.29 103.41,622.04" speed="5.56"/>
   </edge>
   <edge function="internal" id=":1299761608_2">
      <lane allow="delivery bicycle pedestrian" id=":1299761608_2_0" index="0" length="0.10" shape="103.37,621.96 103.41,622.04" speed="5.56"/>
   </edge>
   <edge function="internal" id=":1299761608_3">
      <lane allow="delivery bicycle pedestrian" id=":1299761608_3_0" index="0" length="2.41" shape="103.37,621.96 103.24,623.45 102.72,624.20" speed="5.56"/>
   </edge>
   <edge function="internal" id=":1299761608_5">
      <lane id=":1299761608_5_0" index="0" length="2.41" shape="102.72,624.20 101.80,624.24 100.48,623.56" speed="5.56"/>
   </edge>
   <edge function="internal" id=":1299761609_0">
      <lane disallow="tram rail_urban rail rail_electric ship" id=":1299761609_0_0" index="0" length="0.10" shape="150.78,603.27 150.79,603.27" speed="8.33"/>
   </edge>
   <edge function="internal" id=":1299761609_1">
      <lane disallow="tram rail_urban rail rail_electric ship" id=":1299761609_1_0" index="0" length="2.41" shape="150.78,603.27 149.29,603.23 148.51,602.74" speed="8.33"/>
   </edge>
   <edge function="internal" id=":1299761609_4">
      <lane id=":1299761609_4_0" index="0" length="2.41" shape="148.51,602.74 148.42,601.82 149.04,600.47" speed="8.33"/>
   </edge>
   <edge function="internal" id=":1299761609_2">
      <lane disallow="tram rail_urban rail rail_electric ship" id=":1299761609_2_0" index="0" length="0.10" shape="149.04,600.47 149.04,600.47" speed="8.33"/>
   </edge>
   <edge function="internal" id=":1299761609_3">
      <lane disallow="tram rail_urban rail rail_electric ship" id=":1299761609_3_0" index="0" length="2.41" shape="149.04,600.47 150.53,600.51 151.31,601.00" speed="8.33"/>
   </edge>
   <edge function="internal" id=":1299761609_5">
      <lane id=":1299761609_5_0" index="0" length="2.41" shape="151.31,601.00 151.40,601.91 150.79,603.27" speed="8.33"/>
   </edge>
   <edge function="internal" id=":1301154542_0">
      <lane disallow="tram rail_urban rail rail_electric ship" id=":1301154542_0_0" index="0" length="0.10" shape="161.57,579.55 161.57,579.55" speed="8.33"/>
   </edge>
   <edge function="internal" id=":1301154542_1">
      <lane disallow="tram rail_urban rail rail_electric ship" id=":1301154542_1_0" index="0" length="2.41" shape="161.57,579.55 161.58,578.06 162.04,577.26" speed="8.33"/>
   </edge>
   <edge function="internal" id=":1301154542_4">
      <lane id=":1301154542_4_0" index="0" length="2.41" shape="162.04,577.26 162.95,577.16 164.32,577.74" speed="8.33"/>
   </edge>
   <edge function="internal" id=":1301154542_2">
      <lane disallow="tram rail_urban rail rail_electric ship" id=":1301154542_2_0" index="0" length="0.10" shape="164.33,577.74 164.32,577.74" speed="8.33"/>
   </edge>
   <edge function="internal" id=":1301154542_3">
      <lane disallow="tram rail_urban rail rail_electric ship" id=":1301154542_3_0" index="0" length="2.41" shape="164.33,577.74 164.31,579.23 163.85,580.02" speed="8.33"/>
   </edge>
   <edge function="internal" id=":1301154542_5">
      <lane id=":1301154542_5_0" index="0" length="2.41" shape="163.85,580.02 162.93,580.13 161.57,579.55" speed="8.33"/>
   </edge>
   <edge function="internal" id=":1301154589_0">
      <lane disallow="tram rail_urban rail rail_electric ship" id=":1301154589_0_0" index="0" length="0.10" shape="166.33,586.81 166.33,586.81" speed="8.33"/>
   </edge>
   <edge function="internal" id=":1301154589_1">
      <lane disallow="tram rail_urban rail rail_electric ship" id=":1301154589_1_0" index="0" length="2.41" shape="166.33,586.81 166.34,585.32 166.80,584.53" speed="8.33"/>
   </edge>
   <edge function="internal" id=":1301154589_4">
      <lane id=":1301154589_4_0" index="0" length="2.41" shape="166.80,584.53 167.72,584.42 169.09,585.00" speed="8.33"/>
   </edge>
   <edge function="internal" id=":1301154589_2">
      <lane disallow="tram rail_urban rail rail_electric ship" id=":1301154589_2_0" index="0" length="0.10" shape="169.09,585.00 169.09,585.00" speed="8.33"/>
   </edge>
   <edge function="internal" id=":1301154589_3">
      <lane disallow="tram rail_urban rail rail_electric ship" id=":1301154589_3_0" index="0" length="2.41" shape="169.09,585.00 169.08,586.49 168.61,587.29" speed="8.33"/>
   </edge>
   <edge function="internal" id=":1301154589_5">
      <lane id=":1301154589_5_0" index="0" length="2.41" shape="168.61,587.29 167.69,587.39 166.33,586.81" speed="8.33"/>
   </edge>
   <edge function="internal" id=":1315766136_0">
      <lane disallow="tram rail_urban rail rail_electric ship" id=":1315766136_0_0" index="0" length="0.10" shape="692.62,213.83 692.62,213.83" speed="8.33"/>
   </edge>
   <edge function="internal" id=":1315766162_0">
      <lane disallow="tram rail_urban rail rail_electric ship" id=":1315766162_0_0" index="0" length="0.10" shape="702.64,226.44 702.64,226.44" speed="8.33"/>
   </edge>
   <edge function="internal" id=":1315766163_0">
      <lane disallow="tram rail_urban rail rail_electric ship" id=":1315766163_0_0" index="0" length="0.10" shape="510.72,237.37 510.71,237.37" speed="8.33"/>
   </edge>
   <edge function="internal" id=":1315766163_1">
      <lane disallow="tram rail_urban rail rail_electric ship" id=":1315766163_1_0" index="0" length="2.41" shape="510.72,237.37 509.23,237.40 508.42,236.95" speed="8.33"/>
   </edge>
   <edge function="internal" id=":1315766163_4">
      <lane id=":1315766163_4_0" index="0" length="2.41" shape="508.42,236.95 508.29,236.04 508.84,234.66" speed="8.33"/>
   </edge>
   <edge function="internal" id=":1315766163_2">
      <lane disallow="tram rail_urban rail rail_electric ship" id=":1315766163_2_0" index="0" length="0.10" shape="508.88,234.63 508.84,234.66" speed="8.33"/>
   </edge>
   <edge function="internal" id=":1315766163_3">
      <lane disallow="tram rail_urban rail rail_electric ship" id=":1315766163_3_0" index="0" length="2.41" shape="508.88,234.63 510.36,234.63 511.17,235.08" speed="8.33"/>
   </edge>
   <edge function="internal" id=":1315766163_5">
      <lane id=":1315766163_5_0" index="0" length="2.41" shape="511.17,235.08 511.28,236.00 510.71,237.37" speed="8.33"/>
   </edge>
   <edge function="internal" id=":1315766204_0">
      <lane disallow="tram rail_urban rail rail_electric ship" id=":1315766204_0_0" index="0" length="0.10" shape="481.24,256.90 481.24,256.90" speed="8.33"/>
   </edge>
   <edge function="internal" id=":1315766204_1">
      <lane disallow="tram rail_urban rail rail_electric ship" id=":1315766204_1_0" index="0" length="2.41" shape="481.24,256.90 479.75,256.91 478.94,256.47" speed="8.33"/>
   </edge>
   <edge function="internal" id=":1315766204_4">
      <lane id=":1315766204_4_0" index="0" length="2.41" shape="478.94,256.47 478.82,255.55 479.37,254.17" speed="8.33"/>
   </edge>
   <edge function="internal" id=":1315766204_2">
      <lane disallow="tram rail_urban rail rail_electric ship" id=":1315766204_2_0" index="0" length="2.04" shape="477.69,255.32 479.37,254.17" speed="8.33"/>
   </edge>
   <edge function="internal" id=":1315766204_3">
      <lane disallow="tram rail_urban rail rail_electric ship" id=":1315766204_3_0" index="0" length="2.83" shape="477.69,255.32 479.17,254.39 480.25,254.34" speed="8.33"/>
   </edge>
   <edge function="internal" id=":1315766204_5">
      <lane id=":1315766204_5_0" index="0" length="2.83" shape="480.25,254.34 480.94,255.17 481.24,256.90" speed="8.33"/>
   </edge>
   <edge function="internal" id=":1315777878_0">
      <lane disallow="tram rail_urban rail rail_electric ship" id=":1315777878_0_0" index="0" length="0.10" shape="472.87,707.42 472.88,707.43" speed="8.33"/>
   </edge>
   <edge function="internal" id=":1315777878_1">
      <lane disallow="tram rail_urban rail rail_electric ship" id=":1315777878_1_0" index="0" length="2.41" shape="472.87,707.42 473.26,705.98 473.90,705.33" speed="8.33"/>
   </edge>
   <edge function="internal" id=":1315777878_4">
      <lane id=":1315777878_4_0" index="0" length="2.41" shape="473.90,705.33 474.82,705.45 476.00,706.36" speed="8.33"/>
   </edge>
   <edge function="internal" id=":1315777878_2">
      <lane disallow="tram rail_urban rail rail_electric ship" id=":1315777878_2_0" index="0" length="0.10" shape="476.00,706.36 476.00,706.36" speed="8.33"/>
   </edge>
   <edge function="internal" id=":1315777878_3">
      <lane disallow="tram rail_urban rail rail_electric ship" id=":1315777878_3_0" index="0" length="2.41" shape="476.00,706.36 475.62,707.80 474.97,708.46" speed="8.33"/>
   </edge>
   <edge function="internal" id=":1315777878_5">
      <lane id=":1315777878_5_0" index="0" length="2.41" shape="474.97,708.46 474.06,708.33 472.88,707.43" speed="8.33"/>
   </edge>
   <edge function="internal" id=":1378988187_0">
      <lane disallow="tram rail_urban rail rail_electric ship" id=":1378988187_0_0" index="0" length="0.19" shape="207.89,440.17 207.74,440.27" speed="8.33"/>
   </edge>
   <edge function="internal" id=":1378988187_1">
      <lane disallow="tram rail_urban rail rail_electric ship" id=":1378988187_1_0" index="0" length="2.41" shape="207.89,440.17 206.40,440.19 205.60,439.74" speed="8.33"/>
   </edge>
   <edge function="internal" id=":1378988187_4">
      <lane id=":1378988187_4_0" index="0" length="2.41" shape="205.60,439.74 205.47,438.83 206.03,437.45" speed="8.33"/>
   </edge>
   <edge function="internal" id=":1378988187_2">
      <lane disallow="tram rail_urban rail rail_electric ship" id=":1378988187_2_0" index="0" length="0.10" shape="205.98,437.47 206.03,437.45" speed="8.33"/>
   </edge>
   <edge function="internal" id=":1378988187_3">
      <lane disallow="tram rail_urban rail rail_electric ship" id=":1378988187_3_0" index="0" length="2.41" shape="205.98,437.47 207.47,437.52 208.26,438.00" speed="8.33"/>
   </edge>
   <edge function="internal" id=":1378988187_5">
      <lane id=":1378988187_5_0" index="0" length="2.41" shape="208.26,438.00 208.35,438.92 207.74,440.27" speed="8.33"/>
   </edge>
   <edge function="internal" id=":1378988191_0">
      <lane disallow="tram rail_urban rail rail_electric ship" id=":1378988191_0_0" index="0" length="0.10" shape="166.95,468.04 166.95,468.04" speed="8.33"/>
   </edge>
   <edge function="internal" id=":1378988191_1">
      <lane disallow="tram rail_urban rail rail_electric ship" id=":1378988191_1_0" index="0" length="2.41" shape="166.95,468.04 165.46,468.02 164.67,467.55" speed="8.33"/>
   </edge>
   <edge function="internal" id=":1378988191_4">
      <lane id=":1378988191_4_0" index="0" length="2.41" shape="164.67,467.55 164.57,466.63 165.16,465.27" speed="8.33"/>
   </edge>
   <edge function="internal" id=":1378988191_2">
      <lane disallow="tram rail_urban rail rail_electric ship" id=":1378988191_2_0" index="0" length="0.10" shape="165.16,465.27 165.16,465.27" speed="8.33"/>
   </edge>
   <edge function="internal" id=":1378988191_3">
      <lane disallow="tram rail_urban rail rail_electric ship" id=":1378988191_3_0" index="0" length="2.41" shape="165.16,465.27 166.65,465.29 167.44,465.76" speed="8.33"/>
   </edge>
   <edge function="internal" id=":1378988191_5">
      <lane id=":1378988191_5_0" index="0" length="2.41" shape="167.44,465.76 167.55,466.68 166.95,468.04" speed="8.33"/>
   </edge>
   <edge function="internal" id=":1378988222_0">
      <lane disallow="tram rail_urban rail rail_electric ship" id=":1378988222_0_0" index="0" length="0.10" shape="218.82,538.01 218.82,538.01" speed="8.33"/>
   </edge>
   <edge function="internal" id=":1378988224_0">
      <lane disallow="tram rail_urban rail rail_electric ship" id=":1378988224_0_0" index="0" length="0.10" shape="139.42,544.71 139.42,544.71" speed="8.33"/>
   </edge>
   <edge function="internal" id=":1378988224_1">
      <lane disallow="tram rail_urban rail rail_electric ship" id=":1378988224_1_0" index="0" length="2.41" shape="139.42,544.71 139.45,543.22 139.93,542.43" speed="8.33"/>
   </edge>
   <edge function="internal" id=":1378988224_4">
      <lane id=":1378988224_4_0" index="0" length="2.41" shape="139.93,542.43 140.85,542.34 142.21,542.95" speed="8.33"/>
   </edge>
   <edge function="internal" id=":1378988224_2">
      <lane disallow="tram rail_urban rail rail_electric ship" id=":1378988224_2_0" index="0" length="0.10" shape="142.21,542.95 142.21,542.95" speed="8.33"/>
   </edge>
   <edge function="internal" id=":1378988224_3">
      <lane disallow="tram rail_urban rail rail_electric ship" id=":1378988224_3_0" index="0" length="2.41" shape="142.21,542.95 142.17,544.43 141.70,545.22" speed="8.33"/>
   </edge>
   <edge function="internal" id=":1378988224_5">
      <lane id=":1378988224_5_0" index="0" length="2.41" shape="141.70,545.22 140.78,545.32 139.42,544.71" speed="8.33"/>
   </edge>
   <edge function="internal" id=":1378988227_0">
      <lane disallow="tram rail_urban rail rail_electric ship" id=":1378988227_0_0" index="0" length="0.10" shape="228.70,553.57 228.70,553.57" speed="8.33"/>
   </edge>
   <edge function="internal" id=":1379210293_0">
      <lane disallow="tram rail_urban rail rail_electric ship" id=":1379210293_0_0" index="0" length="0.10" shape="320.45,599.00 320.46,599.00" speed="8.33"/>
   </edge>
   <edge function="internal" id=":1379210293_1">
      <lane disallow="tram rail_urban rail rail_electric ship" id=":1379210293_1_0" index="0" length="2.41" shape="320.45,599.00 318.97,599.03 318.16,598.59" speed="8.33"/>
   </edge>
   <edge function="internal" id=":1379210293_4">
      <lane id=":1379210293_4_0" index="0" length="2.41" shape="318.16,598.59 318.02,597.68 318.57,596.30" speed="8.33"/>
   </edge>
   <edge function="internal" id=":1379210293_2">
      <lane disallow="tram rail_urban rail rail_electric ship" id=":1379210293_2_0" index="0" length="0.10" shape="318.56,596.30 318.57,596.30" speed="8.33"/>
   </edge>
   <edge function="internal" id=":1379210293_3">
      <lane disallow="tram rail_urban rail rail_electric ship" id=":1379210293_3_0" index="0" length="2.41" shape="318.56,596.30 320.05,596.26 320.86,596.70" speed="8.33"/>
   </edge>
   <edge function="internal" id=":1379210293_5">
      <lane id=":1379210293_5_0" index="0" length="2.41" shape="320.86,596.70 321.00,597.61 320.46,599.00" speed="8.33"/>
   </edge>
   <edge function="internal" id=":1379210438_0">
      <lane disallow="tram rail_urban rail rail_electric ship" id=":1379210438_0_0" index="0" length="0.10" shape="365.86,666.34 365.86,666.34" speed="8.33"/>
   </edge>
   <edge function="internal" id=":1772725982_0">
      <lane disallow="tram rail_urban rail rail_electric ship" id=":1772725982_0_0" index="0" length="0.10" shape="541.29,147.94 541.28,147.93" speed="8.33"/>
   </edge>
   <edge function="internal" id=":1772725982_1">
      <lane disallow="tram rail_urban rail rail_electric ship" id=":1772725982_1_0" index="0" length="2.41" shape="541.29,147.94 541.28,146.45 541.74,145.65" speed="8.33"/>
   </edge>
   <edge function="internal" id=":1772725982_4">
      <lane id=":1772725982_4_0" index="0" length="2.41" shape="541.74,145.65 542.65,145.53 544.03,146.10" speed="8.33"/>
   </edge>
   <edge function="internal" id=":1772725982_2">
      <lane disallow="tram rail_urban rail rail_electric ship" id=":1772725982_2_0" index="0" length="0.10" shape="544.05,146.13 544.03,146.10" speed="8.33"/>
   </edge>
   <edge function="internal" id=":1772725982_3">
      <lane disallow="tram rail_urban rail rail_electric ship" id=":1772725982_3_0" index="0" length="2.41" shape="544.05,146.13 544.03,147.61 543.57,148.41" speed="8.33"/>
   </edge>
   <edge function="internal" id=":1772725982_5">
      <lane id=":1772725982_5_0" index="0" length="2.41" shape="543.57,148.41 542.65,148.51 541.28,147.93" speed="8.33"/>
   </edge>
   <edge function="internal" id=":1894414609_0">
      <lane disallow="tram rail_urban rail rail_electric ship" id=":1894414609_0_0" index="0" length="0.10" shape="732.34,319.27 732.34,319.27" speed="8.33"/>
   </edge>
   <edge function="internal" id=":1894414609_1">
      <lane disallow="tram rail_urban rail rail_electric ship" id=":1894414609_1_0" index="0" length="2.41" shape="732.34,319.27 730.85,319.30 730.04,318.86" speed="8.33"/>
   </edge>
   <edge function="internal" id=":1894414609_4">
      <lane id=":1894414609_4_0" index="0" length="2.41" shape="730.04,318.86 729.91,317.95 730.45,316.57" speed="8.33"/>
   </edge>
   <edge function="internal" id=":1894414609_2">
      <lane disallow="tram rail_urban rail rail_electric ship" id=":1894414609_2_0" index="0" length="0.10" shape="730.46,316.56 730.45,316.57" speed="8.33"/>
   </edge>
   <edge function="internal" id=":1894414609_3">
      <lane disallow="tram rail_urban rail rail_electric ship" id=":1894414609_3_0" index="0" length="2.41" shape="730.46,316.56 731.95,316.53 732.75,316.98" speed="8.33"/>
   </edge>
   <edge function="internal" id=":1894414609_5">
      <lane id=":1894414609_5_0" index="0" length="2.41" shape="732.75,316.98 732.88,317.89 732.34,319.27" speed="8.33"/>
   </edge>
   <edge function="internal" id=":1894414661_0">
      <lane disallow="tram rail_urban rail rail_electric ship" id=":1894414661_0_0" index="0" length="0.10" shape="822.38,358.57 822.38,358.57" speed="8.33"/>
   </edge>
   <edge function="internal" id=":1894414711_0">
      <lane disallow="tram rail_urban rail rail_electric ship" id=":1894414711_0_0" index="0" length="0.10" shape="704.64,388.14 704.64,388.14" speed="8.33"/>
   </edge>
   <edge function="internal" id=":1894414711_1">
      <lane disallow="tram rail_urban rail rail_electric ship" id=":1894414711_1_0" index="0" length="2.41" shape="704.64,388.14 704.63,386.66 705.08,385.85" speed="8.33"/>
   </edge>
   <edge function="internal" id=":1894414711_4">
      <lane id=":1894414711_4_0" index="0" length="2.41" shape="705.08,385.85 706.00,385.73 707.37,386.29" speed="8.33"/>
   </edge>
   <edge function="internal" id=":1894414711_2">
      <lane disallow="tram rail_urban rail rail_electric ship" id=":1894414711_2_0" index="0" length="0.10" shape="707.37,386.29 707.37,386.29" speed="8.33"/>
   </edge>
   <edge function="internal" id=":1894414711_3">
      <lane disallow="tram rail_urban rail rail_electric ship" id=":1894414711_3_0" index="0" length="2.41" shape="707.37,386.29 707.38,387.78 706.93,388.58" speed="8.33"/>
   </edge>
   <edge function="internal" id=":1894414711_5">
      <lane id=":1894414711_5_0" index="0" length="2.41" shape="706.93,388.58 706.02,388.71 704.64,388.14" speed="8.33"/>
   </edge>
   <edge function="internal" id=":1894414713_0">
      <lane disallow="tram rail_urban rail rail_electric ship" id=":1894414713_0_0" index="0" length="0.10" shape="630.49,388.94 630.49,388.94" speed="8.33"/>
   </edge>
   <edge function="internal" id=":1894414713_1">
      <lane disallow="tram rail_urban rail rail_electric ship" id=":1894414713_1_0" index="0" length="2.41" shape="630.49,388.94 629.00,388.95 628.20,388.49" speed="8.33"/>
   </edge>
   <edge function="internal" id=":1894414713_4">
      <lane id=":1894414713_4_0" index="0" length="2.41" shape="628.20,388.49 628.08,387.58 628.64,386.20" speed="8.33"/>
   </edge>
   <edge function="internal" id=":1894414713_2">
      <lane disallow="tram rail_urban rail rail_electric ship" id=":1894414713_2_0" index="0" length="0.10" shape="628.64,386.20 628.64,386.20" speed="8.33"/>
   </edge>
   <edge function="internal" id=":1894414713_3">
      <lane disallow="tram rail_urban rail rail_electric ship" id=":1894414713_3_0" index="0" length="2.41" shape="628.64,386.20 630.13,386.19 630.93,386.64" speed="8.33"/>
   </edge>
   <edge function="internal" id=":1894414713_5">
      <lane id=":1894414713_5_0" index="0" length="2.41" shape="630.93,386.64 631.05,387.56 630.49,388.94" speed="8.33"/>
   </edge>
   <edge function="internal" id=":1894414736_0">
      <lane disallow="tram rail_urban rail rail_electric ship" id=":1894414736_0_0" index="0" length="0.10" shape="760.09,401.31 760.09,401.31" speed="8.33"/>
   </edge>
   <edge function="internal" id=":1894414782_0">
      <lane disallow="tram rail_urban rail rail_electric ship" id=":1894414782_0_0" index="0" length="0.10" shape="696.65,444.77 696.65,444.77" speed="8.33"/>
   </edge>
   <edge function="internal" id=":1894414812_0">
      <lane disallow="tram rail_urban rail rail_electric ship" id=":1894414812_0_0" index="0" length="0.10" shape="580.19,471.71 580.20,471.73" speed="8.33"/>
   </edge>
   <edge function="internal" id=":1894414812_1">
      <lane disallow="tram rail_urban rail rail_electric ship" id=":1894414812_1_0" index="0" length="2.41" shape="580.19,471.71 580.20,470.23 580.66,469.43" speed="8.33"/>
   </edge>
   <edge function="internal" id=":1894414812_4">
      <lane id=":1894414812_4_0" index="0" length="2.41" shape="580.66,469.43 581.58,469.32 582.95,469.90" speed="8.33"/>
   </edge>
   <edge function="internal" id=":1894414812_2">
      <lane disallow="tram rail_urban rail rail_electric ship" id=":1894414812_2_0" index="0" length="0.10" shape="582.95,469.90 582.95,469.90" speed="8.33"/>
   </edge>
   <edge function="internal" id=":1894414812_3">
      <lane disallow="tram rail_urban rail rail_electric ship" id=":1894414812_3_0" index="0" length="2.41" shape="582.95,469.90 582.95,471.39 582.49,472.19" speed="8.33"/>
   </edge>
   <edge function="internal" id=":1894414812_5">
      <lane id=":1894414812_5_0" index="0" length="2.41" shape="582.49,472.19 581.57,472.30 580.20,471.73" speed="8.33"/>
   </edge>
   <edge function="internal" id=":1894414821_0">
      <lane disallow="tram rail_urban rail rail_electric ship" id=":1894414821_0_0" index="0" length="0.10" shape="634.90,486.62 634.90,486.62" speed="8.33"/>
   </edge>
   <edge function="internal" id=":1940308139_0">
      <lane disallow="tram rail_urban rail rail_electric ship" id=":1940308139_0_0" index="0" length="0.10" shape="742.02,34.43 742.05,34.42" speed="8.33"/>
   </edge>
   <edge function="internal" id=":1940308139_1">
      <lane disallow="tram rail_urban rail rail_electric ship" id=":1940308139_1_0" index="0" length="2.41" shape="742.02,34.43 740.62,33.92 740.02,33.22" speed="8.33"/>
   </edge>
   <edge function="internal" id=":1940308139_4">
      <lane id=":1940308139_4_0" index="0" length="2.41" shape="740.02,33.22 740.23,32.32 741.23,31.23" speed="8.33"/>
   </edge>
   <edge function="internal" id=":1940308139_2">
      <lane disallow="tram rail_urban rail rail_electric ship" id=":1940308139_2_0" index="0" length="0.10" shape="741.23,31.23 741.23,31.23" speed="8.33"/>
   </edge>
   <edge function="internal" id=":1940308139_3">
      <lane disallow="tram rail_urban rail rail_electric ship" id=":1940308139_3_0" index="0" length="2.41" shape="741.23,31.23 742.63,31.72 743.23,32.41" speed="8.33"/>
   </edge>
   <edge function="internal" id=":1940308139_5">
      <lane id=":1940308139_5_0" index="0" length="2.41" shape="743.23,32.41 743.04,33.32 742.05,34.42" speed="8.33"/>
   </edge>
   <edge function="internal" id=":1940308147_0">
      <lane disallow="tram rail_urban rail rail_electric ship" id=":1940308147_0_0" index="0" length="0.10" shape="814.85,58.56 814.85,58.56" speed="8.33"/>
   </edge>
   <edge function="internal" id=":1940308147_1">
      <lane disallow="tram rail_urban rail rail_electric ship" id=":1940308147_1_0" index="0" length="2.41" shape="814.85,58.56 815.03,57.09 815.58,56.35" speed="8.33"/>
   </edge>
   <edge function="internal" id=":1940308147_4">
      <lane id=":1940308147_4_0" index="0" length="2.41" shape="815.58,56.35 816.50,56.34 817.79,57.08" speed="8.33"/>
   </edge>
   <edge function="internal" id=":1940308147_2">
      <lane disallow="tram rail_urban rail rail_electric ship" id=":1940308147_2_0" index="0" length="0.10" shape="817.79,57.08 817.79,57.08" speed="8.33"/>
   </edge>
   <edge function="internal" id=":1940308147_3">