<?xml version="1.0" encoding="utf-8"?><!-- generated on 10/11/17 17:53:23 by SUMO netconvert Version 0.25.0
<?xml version="1.0" encoding="UTF-8"?>

<configuration xmlns:xsi="http://www.w3.org/2001/XMLSchema-instance" xsi:noNamespaceSchemaLocation="http://sumo.dlr.de/xsd/netconvertConfiguration.xsd">

    <input>
        <type-files value="osmNetconvert.typ.xml"/>
        <osm-files value="HAL_Altstadt_historical_800.osm"/>
    </input>

    <output>
        <output-file value="HAL_Altstadt_historical_800.net.xml"/>
    </output>

    <projection>
        <proj.utm value="true"/>
    </projection>

    <edge_removal>
        <remove-edges.by-type value="highway.track,highway.unsurfaced,highway.raceway,highway.bridleway,highway.path,highway.footway,highway.pedestrian,highway.cycleway,highway.step,highway.steps,highway.stairs,highway.bus_guideway,highway.ford,railway.rail,railway.tram,railway.light_rail,railway.subway,railway.preserved,railway.narrow_gauge,railway.monorail,railway.funicular"/>
    </edge_removal>

</configuration>
-->
<net version="0.25">
   <location convBoundary="0.00,0.00,868.74,852.25" netOffset="-705752.29,-5707253.85" origBoundary="11.963415,51.478902,11.975688,51.486396" projParameter="+proj=utm +zone=32 +ellps=WGS84 +datum=WGS84 +units=m +no_defs"/>
   <type allow="pedestrian" id="highway.bridleway" numLanes="1" oneway="1" priority="1" speed="2.78" width="2.00"/>
   <type allow="bus" id="highway.bus_guideway" numLanes="1" oneway="1" priority="1" speed="8.33"/>
   <type allow="bicycle" id="highway.cycleway" numLanes="1" oneway="0" priority="1" speed="5.56" width="1.00"/>
   <type allow="pedestrian" id="highway.footway" numLanes="1" oneway="1" priority="1" speed="8.33" width="2.00"/>
   <type allow="army" id="highway.ford" numLanes="1" oneway="0" priority="1" speed="2.78"/>
   <type disallow="tram rail_urban rail rail_electric ship" id="highway.living_street" numLanes="1" oneway="0" priority="3" speed="2.78"/>
   <type allow="private emergency authority army vip passenger hov taxi bus coach delivery truck trailer motorcycle evehicle custom1 custom2" id="highway.motorway" numLanes="2" oneway="1" priority="13" speed="44.44"/>
   <type allow="private emergency authority army vip passenger hov taxi bus coach delivery truck trailer motorcycle evehicle custom1 custom2" id="highway.motorway_link" numLanes="1" oneway="1" priority="12" speed="22.22"/>
   <type allow="bicycle pedestrian" id="highway.path" numLanes="1" oneway="1" priority="1" speed="2.78" width="2.00"/>
   <type allow="pedestrian" id="highway.pedestrian" numLanes="1" oneway="1" priority="1" speed="8.33" width="2.00"/>
   <type disallow="tram rail_urban rail rail_electric ship" id="highway.primary" numLanes="2" oneway="0" priority="9" speed="27.78"/>
   <type disallow="tram rail_urban rail rail_electric ship" id="highway.primary_link" numLanes="1" oneway="0" priority="8" speed="22.22"/>
   <type allow="vip" id="highway.raceway" numLanes="2" oneway="0" priority="14" speed="83.33"/>
   <type disallow="tram rail_urban rail rail_electric ship" id="highway.residential" numLanes="1" oneway="0" priority="4" speed="13.89"/>
   <type disallow="tram rail_urban rail rail_electric ship" id="highway.secondary" numLanes="2" oneway="0" priority="7" speed="27.78"/>
   <type disallow="tram rail_urban rail rail_electric ship" id="highway.secondary_link" numLanes="1" oneway="0" priority="6" speed="22.22"/>
   <type allow="delivery bicycle pedestrian" id="highway.service" numLanes="1" oneway="0" priority="2" speed="5.56"/>
   <type disallow="tram rail_urban rail rail_electric ship" id="highway.services" numLanes="1" oneway="0" priority="1" speed="8.33"/>
   <type allow="pedestrian" id="highway.stairs" numLanes="1" oneway="1" priority="1" speed="1.39" width="2.00"/>
   <type allow="pedestrian" id="highway.step" numLanes="1" oneway="1" priority="1" speed="1.39" width="2.00"/>
   <type allow="pedestrian" id="highway.steps" numLanes="1" oneway="1" priority="1" speed="1.39" width="2.00"/>
   <type disallow="tram rail_urban rail rail_electric ship" id="highway.tertiary" numLanes="1" oneway="0" priority="6" speed="22.22"/>
   <type disallow="tram rail_urban rail rail_electric ship" id="highway.tertiary_link" numLanes="1" oneway="0" priority="5" speed="22.22"/>
   <type disallow="tram rail_urban rail rail_electric ship" id="highway.track" numLanes="1" oneway="0" priority="1" speed="5.56"/>
   <type disallow="tram rail_urban rail rail_electric bicycle pedestrian ship" id="highway.trunk" numLanes="2" oneway="0" priority="11" speed="27.78"/>
   <type disallow="tram rail_urban rail rail_electric bicycle pedestrian ship" id="highway.trunk_link" numLanes="1" oneway="0" priority="10" speed="22.22"/>
   <type disallow="tram rail_urban rail rail_electric ship" id="highway.unclassified" numLanes="1" oneway="0" priority="5" speed="13.89"/>
   <type disallow="tram rail_urban rail rail_electric ship" id="highway.unsurfaced" numLanes="1" oneway="0" priority="1" speed="8.33"/>
   <type allow="rail_urban" id="railway.light_rail" numLanes="1" oneway="1" priority="15" speed="27.78"/>
   <type allow="rail" id="railway.preserved" numLanes="1" oneway="1" priority="15" speed="27.78"/>
   <type allow="rail rail_electric" id="railway.rail" numLanes="1" oneway="1" priority="15" speed="83.33"/>
   <type allow="rail_urban" id="railway.subway" numLanes="1" oneway="1" priority="15" speed="27.78"/>
   <type allow="tram" id="railway.tram" numLanes="1" oneway="1" priority="15" speed="13.89"/>
   <edge function="internal" id=":102108806_0">
      <lane disallow="tram rail_urban rail rail_electric ship" id=":102108806_0_0" index="0" length="4.82" shape="567.18,848.64 565.69,848.60 564.90,848.13 564.81,847.21 565.41,845.85" speed="8.33"/>
   </edge>
   <edge function="internal" id=":102873923_0">
      <lane disallow="tram rail_urban rail rail_electric ship" id=":102873923_0_0" index="0" length="3.79" shape="591.84,820.97 588.06,820.90" speed="13.89"/>
   </edge>
   <edge function="internal" id=":102873923_1">
      <lane disallow="tram rail_urban rail rail_electric ship" id=":102873923_1_0" index="0" length="4.94" shape="592.85,817.83 588.42,815.64" speed="13.89"/>
   </edge>
   <edge function="internal" id=":102874237_0">
      <lane disallow="tram rail_urban rail rail_electric ship" id=":102874237_0_0" index="0" length="4.90" shape="612.48,820.78 611.61,821.68 611.13,822.71 611.04,823.88 611.33,825.19" speed="11.11"/>
   </edge>
   <edge function="internal" id=":102874237_1">
      <lane disallow="tram rail_urban rail rail_electric ship" id=":102874237_1_0" index="0" length="4.95" shape="612.48,820.78 607.44,823.18" speed="13.89"/>
      <lane disallow="tram rail_urban rail rail_electric ship" id=":102874237_1_1" index="1" length="4.95" shape="610.45,818.18 606.53,820.01" speed="13.89"/>
   </edge>
   <edge function="internal" id=":102879264_0">
      <lane disallow="tram rail_urban rail rail_electric ship" id=":102879264_0_0" index="0" length="14.20" shape="777.74,809.25 775.70,812.22 773.43,814.84 771.01,817.35 768.52,820.00" speed="8.33"/>
   </edge>
   <edge function="internal" id=":102879264_1">
      <lane disallow="tram rail_urban rail rail_electric ship" id=":102879264_1_0" index="0" length="15.45" shape="777.74,809.25 774.66,813.42 771.76,815.15 769.04,814.43 766.50,811.26" speed="11.11"/>
   </edge>
   <edge function="internal" id=":102879264_2">
      <lane disallow="tram rail_urban rail rail_electric ship" id=":102879264_2_0" index="0" length="4.82" shape="777.74,809.25 776.41,809.89 775.49,809.83 774.98,809.06 774.90,807.57" speed="8.33"/>
   </edge>
   <edge function="internal" id=":102879264_3">
      <lane disallow="tram rail_urban rail rail_electric ship" id=":102879264_3_0" index="0" length="7.68" shape="769.38,809.66 770.51,810.93 771.81,811.01 773.27,809.89 774.90,807.57" speed="11.11"/>
   </edge>
   <edge function="internal" id=":102879264_4">
      <lane disallow="tram rail_urban rail rail_electric ship" id=":102879264_4_0" index="0" length="11.15" shape="769.38,809.66 770.53,812.46 770.77,815.13 770.10,817.64 768.52,820.00" speed="11.11"/>
   </edge>
   <edge function="internal" id=":102879264_5">
      <lane disallow="tram rail_urban rail rail_electric ship" id=":102879264_5_0" index="0" length="4.82" shape="769.38,809.66 769.26,811.14 768.74,811.90 767.82,811.94 766.50,811.26" speed="13.89"/>
   </edge>
   <edge function="internal" id=":1088676552_0">
      <lane disallow="tram rail_urban rail rail_electric ship" id=":1088676552_0_0" index="0" length="0.29" shape="744.54,709.66 744.74,709.45" speed="8.33"/>
   </edge>
   <edge function="internal" id=":109232508_0">
      <lane disallow="tram rail_urban rail rail_electric ship" id=":109232508_0_0" index="0" length="5.89" shape="556.04,829.58 550.71,832.09" speed="13.89"/>
   </edge>
   <edge function="internal" id=":109232508_1">
      <lane disallow="tram rail_urban rail rail_electric ship" id=":109232508_1_0" index="0" length="4.88" shape="556.04,829.58 552.36,830.18 551.24,829.91" speed="13.89"/>
   </edge>
   <edge function="internal" id=":109232508_4">
      <lane id=":109232508_4_0" index="0" length="5.62" shape="551.24,829.91 550.88,829.82 551.61,828.49 554.55,826.18" speed="13.89"/>
   </edge>
   <edge function="internal" id=":109232508_2">
      <lane disallow="tram rail_urban rail rail_electric ship" id=":109232508_2_0" index="0" length="5.61" shape="549.67,828.96 554.55,826.18" speed="13.89"/>
   </edge>
   <edge function="internal" id=":109232508_3">
      <lane disallow="tram rail_urban rail rail_electric ship" id=":109232508_3_0" index="0" length="2.24" shape="549.67,828.96 551.11,829.35 551.64,829.89" speed="13.89"/>
   </edge>
   <edge function="internal" id=":109232508_5">
      <lane id=":109232508_5_0" index="0" length="2.58" shape="551.64,829.89 551.76,830.01 551.63,830.92 550.71,832.09" speed="13.89"/>
   </edge>
   <edge function="internal" id=":109232510_0">
      <lane disallow="tram rail_urban rail rail_electric ship" id=":109232510_0_0" index="0" length="10.80" shape="557.78,812.84 561.60,811.47 564.42,810.17 566.26,808.95 567.10,807.81" speed="9.72"/>
   </edge>
   <edge function="internal" id=":109232510_1">
      <lane allow="delivery bicycle pedestrian" id=":109232510_1_0" index="0" length="4.82" shape="557.78,812.84 559.21,813.24 559.86,813.89 559.72,814.81 558.80,815.97" speed="5.56"/>
   </edge>
   <edge function="internal" id=":109232510_2">
      <lane allow="delivery bicycle pedestrian" id=":109232510_2_0" index="0" length="7.08" shape="561.28,819.15 562.31,817.07 562.23,815.85 561.07,815.48 558.80,815.97" speed="9.72"/>
   </edge>
   <edge function="internal" id=":109232510_3">
      <lane disallow="tram rail_urban rail rail_electric ship" id=":109232510_3_0" index="0" length="12.80" shape="561.28,819.15 563.10,816.26 564.63,813.68 565.93,811.00 567.10,807.81" speed="13.89"/>
   </edge>
   <edge function="internal" id=":109232511_0">
      <lane disallow="tram rail_urban rail rail_electric ship" id=":109232511_0_0" index="0" length="0.34" shape="583.69,784.90 584.08,784.56" speed="13.89"/>
      <lane disallow="tram rail_urban rail rail_electric ship" id=":109232511_0_1" index="1" length="0.34" shape="585.99,787.26 586.12,787.15" speed="13.89"/>
   </edge>
   <edge function="internal" id=":109232512_0">
      <lane disallow="tram rail_urban rail rail_electric ship" id=":109232512_0_0" index="0" length="8.75" shape="698.29,690.15 697.92,692.11 698.10,694.13 698.83,696.22 700.12,698.38" speed="13.89"/>
   </edge>
   <edge function="internal" id=":109232512_1">
      <lane disallow="tram rail_urban rail rail_electric ship" id=":109232512_1_0" index="0" length="2.41" shape="698.29,690.15 697.11,691.06 696.20,691.19" speed="13.89"/>
   </edge>
   <edge function="internal" id=":109232512_6">
      <lane id=":109232512_6_0" index="0" length="2.41" shape="696.20,691.19 695.55,690.53 695.17,689.09" speed="13.89"/>
   </edge>
   <edge function="internal" id=":109232512_2">
      <lane disallow="tram rail_urban rail rail_electric ship" id=":109232512_2_0" index="0" length="5.69" shape="690.98,690.07 692.32,691.09 693.47,691.27 694.41,690.61 695.17,689.09" speed="9.72"/>
   </edge>
   <edge function="internal" id=":109232512_3">
      <lane disallow="tram rail_urban rail rail_electric ship" id=":109232512_3_0" index="0" length="12.14" shape="690.98,690.07 692.98,692.47 694.21,694.67 695.44,697.12 697.44,700.29" speed="9.72"/>
   </edge>
   <edge function="internal" id=":109232512_4">
      <lane disallow="tram rail_urban rail rail_electric ship" id=":109232512_4_0" index="0" length="10.67" shape="690.35,698.55 692.11,695.87 693.25,693.94 694.15,691.95 695.17,689.09" speed="13.89"/>
   </edge>
   <edge function="internal" id=":109232512_5">
      <lane disallow="tram rail_urban rail rail_electric ship" id=":109232512_5_0" index="0" length="5.52" shape="693.10,700.37 694.16,699.17 695.24,698.76 696.33,699.13 697.44,700.29" speed="13.89"/>
   </edge>
   <edge function="internal" id=":109232531_0">
      <lane disallow="tram rail_urban rail rail_electric ship" id=":109232531_0_0" index="0" length="0.31" shape="863.80,72.17 863.74,71.87" speed="13.89"/>
   </edge>
   <edge function="internal" id=":109232531_1">
      <lane disallow="tram rail_urban rail rail_electric ship" id=":109232531_1_0" index="0" length="2.41" shape="863.80,72.17 864.49,70.86 865.26,70.36" speed="13.89"/>
   </edge>
   <edge function="internal" id=":109232531_4">
      <lane id=":109232531_4_0" index="0" length="2.41" shape="865.26,70.36 866.13,70.68 867.08,71.82" speed="13.89"/>
   </edge>
   <edge function="internal" id=":109232531_2">
      <lane disallow="tram rail_urban rail rail_electric ship" id=":109232531_2_0" index="0" length="0.94" shape="866.89,70.90 867.08,71.82" speed="13.89"/>
   </edge>
   <edge function="internal" id=":109232531_3">
      <lane disallow="tram rail_urban rail rail_electric ship" id=":109232531_3_0" index="0" length="2.41" shape="866.89,70.90 866.47,72.33 865.80,72.96" speed="13.89"/>
   </edge>
   <edge function="internal" id=":109232531_5">
      <lane id=":109232531_5_0" index="0" length="2.41" shape="865.80,72.96 864.89,72.81 863.74,71.87" speed="13.89"/>
   </edge>
   <edge function="internal" id=":109232547_0">
      <lane disallow="tram rail_urban rail rail_electric ship" id=":109232547_0_0" index="0" length="0.10" shape="26.30,480.52 26.30,480.52" speed="13.89"/>
   </edge>
   <edge function="internal" id=":109232551_0">
      <lane disallow="tram rail_urban rail rail_electric ship" id=":109232551_0_0" index="0" length="0.10" shape="33.20,471.04 33.20,471.04" speed="13.89"/>
   </edge>
   <edge function="internal" id=":109232554_0">
      <lane disallow="tram rail_urban rail rail_electric ship" id=":109232554_0_0" index="0" length="5.22" shape="63.26,437.35 62.13,436.42 61.02,436.14 59.94,436.52 58.89,437.54" speed="13.89"/>
   </edge>
   <edge function="internal" id=":109232554_1">
      <lane disallow="tram rail_urban rail rail_electric ship" id=":109232554_1_0" index="0" length="2.05" shape="65.69,435.11 65.46,433.64 65.66,433.12" speed="13.89"/>
   </edge>
   <edge function="internal" id=":109232554_4">
      <lane id=":109232554_4_0" index="0" length="2.77" shape="65.66,433.12 65.79,432.78 66.68,432.53 68.12,432.88" speed="13.89"/>
   </edge>
   <edge function="internal" id=":109232554_2">
      <lane disallow="tram rail_urban rail rail_electric ship" id=":109232554_2_0" index="0" length="7.27" shape="62.15,428.74 68.12,432.88" speed="13.89"/>
   </edge>
   <edge function="internal" id=":109232554_3">
      <lane disallow="tram rail_urban rail rail_electric ship" id=":109232554_3_0" index="0" length="6.16" shape="62.15,428.74 62.65,430.08 62.27,432.00 61.02,434.48" speed="13.89"/>
   </edge>
   <edge function="internal" id=":109232554_5">
      <lane id=":109232554_5_0" index="0" length="3.73" shape="61.02,434.48 58.89,437.54" speed="13.89"/>
   </edge>
   <edge function="internal" id=":109236543_0">
      <lane disallow="tram rail_urban rail rail_electric ship" id=":109236543_0_0" index="0" length="5.89" shape="90.91,455.95 90.52,454.56 89.74,453.46 88.57,452.63 87.00,452.08" speed="9.72"/>
   </edge>
   <edge function="internal" id=":109236543_1">
      <lane disallow="tram rail_urban rail rail_electric ship" id=":109236543_1_0" index="0" length="11.50" shape="90.91,455.95 90.64,451.61 91.06,448.52 92.17,446.68 93.96,446.09" speed="9.72"/>
   </edge>
   <edge function="internal" id=":109236543_2">
      <lane disallow="tram rail_urban rail rail_electric ship" id=":109236543_2_0" index="0" length="6.53" shape="93.84,452.69 87.00,452.08" speed="13.89"/>
      <lane disallow="tram rail_urban rail rail_electric ship" id=":109236543_2_1" index="1" length="6.53" shape="93.90,449.39 87.73,448.87" speed="13.89"/>
   </edge>
   <edge function="internal" id=":109236543_4">
      <lane disallow="tram rail_urban rail rail_electric ship" id=":109236543_4_0" index="0" length="2.57" shape="93.90,449.39 92.68,448.55 92.28,447.71 92.36,447.57" speed="13.89"/>
   </edge>
   <edge function="internal" id=":109236543_7">
      <lane id=":109236543_7_0" index="0" length="2.25" shape="92.36,447.57 92.71,446.90 93.96,446.09" speed="13.89"/>
   </edge>
   <edge function="internal" id=":109236543_5">
      <lane disallow="tram rail_urban rail rail_electric ship" id=":109236543_5_0" index="0" length="5.51" shape="88.47,445.65 93.96,446.09" speed="13.89"/>
   </edge>
   <edge function="internal" id=":109236543_6">
      <lane disallow="tram rail_urban rail rail_electric ship" id=":109236543_6_0" index="0" length="2.20" shape="88.47,445.65 89.49,446.73 89.66,447.43" speed="13.89"/>
   </edge>
   <edge function="internal" id=":109236543_8">
      <lane id=":109236543_8_0" index="0" length="2.62" shape="89.66,447.43 89.71,447.63 89.12,448.34 87.73,448.87" speed="13.89"/>
   </edge>
   <edge function="internal" id=":109236560_0">
      <lane disallow="tram rail_urban rail rail_electric ship" id=":109236560_0_0" index="0" length="3.38" shape="177.05,356.19 176.22,359.47" speed="13.89"/>
   </edge>
   <edge function="internal" id=":109236560_1">
      <lane disallow="tram rail_urban rail rail_electric ship" id=":109236560_1_0" index="0" length="2.66" shape="177.05,356.19 176.08,357.31 175.21,357.62 175.00,357.48" speed="13.89"/>
   </edge>
   <edge function="internal" id=":109236560_5">
      <lane id=":109236560_5_0" index="0" length="2.15" shape="175.00,357.48 174.44,357.11 173.78,355.78" speed="13.89"/>
   </edge>
   <edge function="internal" id=":109236560_2">
      <lane disallow="tram rail_urban rail rail_electric ship" id=":109236560_2_0" index="0" length="3.25" shape="173.15,358.27 170.50,355.37" speed="13.89"/>
      <lane disallow="tram rail_urban rail rail_electric ship" id=":109236560_2_1" index="1" length="3.25" shape="173.15,358.27 173.78,355.78" speed="13.89"/>
   </edge>
   <edge function="internal" id=":109236560_4">
      <lane disallow="tram rail_urban rail rail_electric ship" id=":109236560_4_0" index="0" length="2.23" shape="173.15,358.27 174.36,357.42 175.11,357.35" speed="13.89"/>
   </edge>
   <edge function="internal" id=":109236560_6">
      <lane id=":109236560_6_0" index="0" length="2.59" shape="175.11,357.35 175.28,357.33 175.90,358.02 176.22,359.47" speed="13.89"/>
   </edge>
   <edge function="internal" id=":109330349_0">
      <lane disallow="tram rail_urban rail rail_electric ship" id=":109330349_0_0" index="0" length="6.30" shape="343.06,711.54 348.01,707.63" speed="5.56"/>
   </edge>
   <edge function="internal" id=":109330349_1">
      <lane disallow="tram rail_urban rail rail_electric ship" id=":109330349_1_0" index="0" length="5.95" shape="343.06,711.54 344.16,711.13 345.48,711.05 347.04,711.29 348.83,711.85" speed="5.56"/>
   </edge>
   <edge function="internal" id=":109330376_0">
      <lane disallow="tram rail_urban rail rail_electric ship" id=":109330376_0_0" index="0" length="5.01" shape="417.39,558.59 416.99,557.28 416.26,556.41 415.21,555.99 413.84,556.02" speed="4.17"/>
   </edge>
   <edge function="internal" id=":109330376_1">
      <lane disallow="tram rail_urban rail rail_electric ship" id=":109330376_1_0" index="0" length="9.50" shape="417.39,558.59 415.93,549.21" speed="5.56"/>
   </edge>
   <edge function="internal" id=":109330376_2">
      <lane disallow="tram rail_urban rail rail_electric ship" id=":109330376_2_0" index="0" length="5.03" shape="413.30,552.76 414.63,552.35 415.51,551.62 415.94,550.57 415.93,549.21" speed="4.17"/>
   </edge>
   <edge function="internal" id=":109330376_3">
      <lane disallow="tram rail_urban rail rail_electric ship" id=":109330376_3_0" index="0" length="4.82" shape="413.30,552.76 414.66,553.38 415.20,554.13 414.93,555.01 413.84,556.02" speed="2.78"/>
   </edge>
   <edge function="internal" id=":109330381_0">
      <lane disallow="tram rail_urban rail rail_electric ship" id=":109330381_0_0" index="0" length="8.48" shape="413.87,536.00 413.66,533.09 414.17,531.87 415.43,532.32 417.41,534.45" speed="5.56"/>
   </edge>
   <edge function="internal" id=":109330381_1">
      <lane disallow="tram rail_urban rail rail_electric ship" id=":109330381_1_0" index="0" length="5.59" shape="412.96,531.07 417.41,534.45" speed="5.56"/>
   </edge>
   <edge function="internal" id=":109330392_0">
      <lane disallow="tram rail_urban rail rail_electric ship" id=":109330392_0_0" index="0" length="0.10" shape="584.31,601.43 584.31,601.43" speed="5.56"/>
   </edge>
   <edge function="internal" id=":109330395_0">
      <lane disallow="tram rail_urban rail rail_electric ship" id=":109330395_0_0" index="0" length="6.27" shape="488.61,563.57 494.54,565.60" speed="5.56"/>
   </edge>
   <edge function="internal" id=":109330395_1">
      <lane disallow="tram rail_urban rail rail_electric ship" id=":109330395_1_0" index="0" length="5.34" shape="488.61,563.57 489.74,564.18 490.49,565.11 490.85,566.36 490.83,567.92" speed="5.56"/>
   </edge>
   <edge function="internal" id=":109338274_0">
      <lane disallow="tram rail_urban rail rail_electric ship" id=":109338274_0_0" index="0" length="9.60" shape="777.44,473.93 774.19,482.96" speed="13.89"/>
   </edge>
   <edge function="internal" id=":109338274_1">
      <lane disallow="tram rail_urban rail rail_electric ship" id=":109338274_1_0" index="0" length="4.86" shape="777.44,473.93 776.20,476.13 774.35,477.56" speed="9.72"/>
   </edge>
   <edge function="internal" id=":109338274_2">
      <lane disallow="tram rail_urban rail rail_electric ship" id=":109338274_2_0" index="0" length="2.41" shape="777.44,473.93 776.24,474.81 775.33,474.91" speed="13.89"/>
   </edge>
   <edge function="internal" id=":109338274_9">
      <lane id=":109338274_9_0" index="0" length="5.60" shape="774.35,477.56 771.89,478.21 768.83,478.09" speed="9.72"/>
   </edge>
   <edge function="internal" id=":109338274_10">
      <lane id=":109338274_10_0" index="0" length="2.41" shape="775.33,474.91 774.69,474.24 774.34,472.80" speed="13.89"/>
   </edge>
   <edge function="internal" id=":109338274_3">
      <lane disallow="tram rail_urban rail rail_electric ship" id=":109338274_3_0" index="0" length="5.90" shape="769.32,474.83 771.16,474.93 772.61,474.63 773.67,473.92 774.34,472.80" speed="9.72"/>
   </edge>
   <edge function="internal" id=":109338274_4">
      <lane disallow="tram rail_urban rail rail_electric ship" id=":109338274_4_0" index="0" length="11.36" shape="769.32,474.83 772.39,475.75 774.23,477.42 774.83,479.82 774.19,482.96" speed="9.72"/>
   </edge>
   <edge function="internal" id=":109338274_5">
      <lane disallow="tram rail_urban rail rail_electric ship" id=":109338274_5_0" index="0" length="4.82" shape="769.32,474.83 770.43,475.83 770.71,476.71 770.18,477.46 768.83,478.09" speed="5.56"/>
   </edge>
   <edge function="internal" id=":109338274_6">
      <lane disallow="tram rail_urban rail rail_electric ship" id=":109338274_6_0" index="0" length="5.25" shape="771.08,481.85 771.38,480.40 771.10,479.29 770.25,478.52 768.83,478.09" speed="9.72"/>
   </edge>
   <edge function="internal" id=":109338274_7">
      <lane disallow="tram rail_urban rail rail_electric ship" id=":109338274_7_0" index="0" length="9.62" shape="771.08,481.85 774.34,472.80" speed="13.89"/>
   </edge>
   <edge function="internal" id=":109338274_8">
      <lane disallow="tram rail_urban rail rail_electric ship" id=":109338274_8_0" index="0" length="2.41" shape="771.08,481.85 772.28,480.96 773.19,480.85" speed="13.89"/>
   </edge>
   <edge function="internal" id=":109338274_11">
      <lane id=":109338274_11_0" index="0" length="2.41" shape="773.19,480.85 773.83,481.52 774.19,482.96" speed="13.89"/>
   </edge>
   <edge function="internal" id=":109338280_0">
      <lane disallow="tram rail_urban rail rail_electric ship" id=":109338280_0_0" index="0" length="2.68" shape="634.34,461.27 633.61,461.29 633.06,461.54 632.71,462.03 632.56,462.75" speed="5.56"/>
   </edge>
   <edge function="internal" id=":109338280_1">
      <lane disallow="tram rail_urban rail rail_electric ship" id=":109338280_1_0" index="0" length="2.20" shape="634.34,461.27 633.21,460.30 632.97,459.64" speed="5.56"/>
   </edge>
   <edge function="internal" id=":109338280_4">
      <lane id=":109338280_4_0" index="0" length="2.62" shape="632.97,459.64 632.90,459.44 633.41,458.67 634.73,457.99" speed="5.56"/>
   </edge>
   <edge function="internal" id=":109338280_2">
      <lane disallow="tram rail_urban rail rail_electric ship" id=":109338280_2_0" index="0" length="8.20" shape="629.27,462.53 629.74,460.32 630.80,458.83 632.47,458.05 634.73,457.99" speed="5.56"/>
   </edge>
   <edge function="internal" id=":109338280_3">
      <lane disallow="tram rail_urban rail rail_electric ship" id=":109338280_3_0" index="0" length="2.79" shape="629.27,462.53 630.17,461.35 631.02,461.00 631.35,461.19" speed="5.56"/>
   </edge>
   <edge function="internal" id=":109338280_5">
      <lane id=":109338280_5_0" index="0" length="2.03" shape="631.35,461.19 631.82,461.46 632.56,462.75" speed="5.56"/>
   </edge>
   <edge function="internal" id=":109338288_0">
      <lane disallow="tram rail_urban rail rail_electric ship" id=":109338288_0_0" index="0" length="6.48" shape="624.06,535.27 621.04,541.00" speed="5.56"/>
   </edge>
   <edge function="internal" id=":109338288_1">
      <lane disallow="tram rail_urban rail rail_electric ship" id=":109338288_1_0" index="0" length="7.81" shape="624.06,535.27 623.40,536.49 622.02,537.18 619.95,537.35 617.17,536.98" speed="5.56"/>
   </edge>
   <edge function="internal" id=":109338288_2">
      <lane disallow="tram rail_urban rail rail_electric ship" id=":109338288_2_0" index="0" length="4.82" shape="624.06,535.27 623.00,536.31 622.11,536.54 621.39,535.96 620.84,534.58" speed="5.56"/>
   </edge>
   <edge function="internal" id=":109338296_0">
      <lane disallow="tram rail_urban rail rail_electric ship" id=":109338296_0_0" index="0" length="5.35" shape="602.42,607.95 602.08,609.49 602.15,610.81 602.63,611.91 603.52,612.80" speed="5.56"/>
   </edge>
   <edge function="internal" id=":109338296_1">
      <lane disallow="tram rail_urban rail rail_electric ship" id=":109338296_1_0" index="0" length="6.14" shape="598.33,609.51 603.52,612.80" speed="5.56"/>
   </edge>
   <edge function="internal" id=":109338305_0">
      <lane disallow="tram rail_urban rail rail_electric ship" id=":109338305_0_0" index="0" length="2.51" shape="498.21,507.62 497.54,507.51 496.98,507.64 496.55,508.02 496.24,508.62" speed="5.56"/>
   </edge>
   <edge function="internal" id=":109338309_0">
      <lane disallow="tram rail_urban rail rail_electric ship" id=":109338309_0_0" index="0" length="5.00" shape="479.42,557.14 479.16,558.49 479.40,559.60 480.12,560.46 481.35,561.09" speed="5.56"/>
   </edge>
   <edge function="internal" id=":109338309_1">
      <lane disallow="tram rail_urban rail rail_electric ship" id=":109338309_1_0" index="0" length="6.19" shape="475.48,559.09 481.35,561.09" speed="5.56"/>
   </edge>
   <edge function="internal" id=":109532037_0">
      <lane disallow="tram rail_urban rail rail_electric ship" id=":109532037_0_0" index="0" length="5.14" shape="446.55,745.43 446.08,746.79 446.17,747.92 446.85,748.84 448.10,749.54" speed="5.56"/>
   </edge>
   <edge function="internal" id=":109532037_1">
      <lane disallow="tram rail_urban rail rail_electric ship" id=":109532037_1_0" index="0" length="7.44" shape="441.15,746.88 448.10,749.54" speed="5.56"/>
   </edge>
   <edge function="internal" id=":109532037_2">
      <lane disallow="tram rail_urban rail rail_electric ship" id=":109532037_2_0" index="0" length="6.72" shape="441.92,751.10 443.47,749.97 445.02,749.34 446.56,749.19 448.10,749.54" speed="5.56"/>
   </edge>
   <edge function="internal" id=":109532040_0">
      <lane disallow="tram rail_urban rail rail_electric ship" id=":109532040_0_0" index="0" length="5.12" shape="516.72,776.01 517.97,776.28 519.11,776.09 520.15,775.43 521.06,774.30" speed="5.56"/>
   </edge>
   <edge function="internal" id=":109532040_1">
      <lane disallow="tram rail_urban rail rail_electric ship" id=":109532040_1_0" index="0" length="6.01" shape="516.72,776.01 522.16,778.55" speed="5.56"/>
   </edge>
   <edge function="internal" id=":109532042_0">
      <lane disallow="tram rail_urban rail rail_electric ship" id=":109532042_0_0" index="0" length="4.78" shape="565.94,802.30 567.14,802.76 568.26,802.80 569.30,802.41 570.27,801.60" speed="9.72"/>
   </edge>
   <edge function="internal" id=":109532042_1">
      <lane disallow="tram rail_urban rail rail_electric ship" id=":109532042_1_0" index="0" length="5.45" shape="567.57,806.33 570.27,801.60" speed="13.89"/>
   </edge>
   <edge function="internal" id=":109532047_0">
      <lane disallow="tram rail_urban rail rail_electric ship" id=":109532047_0_0" index="0" length="6.26" shape="606.64,615.02 611.69,618.73" speed="5.56"/>
   </edge>
   <edge function="internal" id=":109532047_1">