<?xml version="1.0" encoding="utf-8"?><!-- generated on 10/11/17 17:53:30 by SUMO polyconvert Version 0.25.0
<?xml version="1.0" encoding="UTF-8"?>

<configuration xmlns:xsi="http://www.w3.org/2001/XMLSchema-instance" xsi:noNamespaceSchemaLocation="http://sumo.dlr.de/xsd/polyconvertConfiguration.xsd">

    <input>
        <net-file value="HAL_Altstadt_historical_800.net.xml"/>
        <osm-files value="HAL_Altstadt_historical_800.osm"/>
        <type-file value="osmPolyconvert.typ.xml"/>
    </input>

    <output>
        <output-file value="HAL_Altstadt_historical_800.poly.xml"/>
    </output>

    <projection>
        <proj.utm value="true"/>
    </projection>

    <processing>
        <poi-layer-offset value="5"/>
    </processing>

</configuration>
-->
<additional>
   <location convBoundary="-8.92,-0.56,869.34,861.16" netOffset="-705752.29,-5707253.85" origBoundary="11.963407,51.478900,11.975700,51.486398" projParameter="+proj=utm +zone=32 +ellps=WGS84 +datum=WGS84 +units=m +no_defs"/>
   <poly color="red" fill="1" id="116803539" layer="-1.00" shape="834.31,575.84 846.83,578.71 845.18,584.38 847.51,564.11 838.29,561.78 815.67,555.29 807.70,572.18 799.43,588.05 814.32,593.91 827.65,598.72 834.31,575.84" type="building"/>
   <poly color="red" fill="1" id="116854804" layer="-1.00" shape="777.36,604.94 785.60,583.22 787.89,583.90 801.81,550.64 759.66,536.35 742.99,582.18 752.21,585.35 756.52,573.05 770.67,577.69 763.35,600.26 767.58,601.87 777.36,604.94" type="building"/>
   <poly color="red" fill="1" id="116857121" layer="-1.00" shape="740.24,720.20 746.13,723.80 768.03,736.29 772.84,725.95 760.21,719.55 764.54,714.14 752.16,707.79 740.24,720.20" type="building"/>
   <poly color="red" fill="1" id="116857122" layer="-1.00" shape="752.16,707.79 761.32,691.12 775.79,698.27 770.92,709.07 768.35,707.11 764.54,714.14 752.16,707.79" type="building"/>
   <poly color="red" fill="1" id="116857123" layer="-1.00" shape="724.58,736.11 740.24,720.20 746.13,723.80 734.71,735.96 727.89,742.32 724.32,737.84 724.58,736.11" type="building"/>
   <poly color="red" fill="1" id="116857124" layer="-1.00" shape="785.85,620.09 799.69,625.23 796.76,634.77 816.94,641.15 814.01,649.63 791.32,642.03 779.30,638.23 785.85,620.09" type="building"/>
   <poly color="237,199,199" fill="1" id="117634989" layer="-1.00" shape="767.53,467.26 767.52,465.31 767.14,464.25 771.76,452.00 773.47,452.57 775.75,446.55 778.50,439.29 776.76,438.77 781.65,424.99 783.29,423.28 783.58,422.19 783.50,421.02 783.11,420.04 782.62,419.39 781.89,418.81 780.86,418.39 778.74,418.55 744.96,405.63 721.23,400.24 717.66,413.82 723.25,415.00 724.44,414.63 725.63,413.62 726.07,411.63 742.91,415.83 739.39,425.20 738.34,424.86 733.47,438.10 734.73,438.48 728.82,453.66 702.88,449.71 700.87,462.79 714.85,464.65 715.32,462.30 754.12,467.81 754.79,468.93 756.01,469.63 757.52,469.60 759.00,468.50 760.31,469.95 762.60,470.85 764.30,470.69 765.73,470.01 766.78,468.96 767.53,467.26" type="amenity"/>
   <poly color="red" fill="1" id="117634989#1" layer="-1.00" shape="767.53,467.26 767.52,465.31 767.14,464.25 771.76,452.00 773.47,452.57 775.75,446.55 778.50,439.29 776.76,438.77 781.65,424.99 783.29,423.28 783.58,422.19 783.50,421.02 783.11,420.04 782.62,419.39 781.89,418.81 780.86,418.39 778.74,418.55 744.96,405.63 721.23,400.24 717.66,413.82 723.25,415.00 724.44,414.63 725.63,413.62 726.07,411.63 742.91,415.83 739.39,425.20 738.34,424.86 733.47,438.10 734.73,438.48 728.82,453.66 702.88,449.71 700.87,462.79 714.85,464.65 715.32,462.30 754.12,467.81 754.79,468.93 756.01,469.63 757.52,469.60 759.00,468.50 760.31,469.95 762.60,470.85 764.30,470.69 765.73,470.01 766.78,468.96 767.53,467.26" type="building"/>
   <poly color="red" fill="1" id="118129655" layer="-1.00" shape="505.94,70.20 493.77,70.52 494.08,80.91 481.14,80.91 481.49,87.42 496.25,87.08 504.41,86.92 505.74,86.91 505.94,70.20" type="building"/>
   <poly color="red" fill="0" id="118129656" layer="-1.00" shape="491.66,14.87 485.91,14.92 485.92,18.52 502.01,18.64 504.46,16.57" type="building"/>
   <poly color="red" fill="1" id="118129657" layer="-1.00" shape="505.68,60.36 505.41,50.68 493.24,51.01 493.50,60.69 505.68,60.36" type="building"/>
   <poly color="red" fill="1" id="118129658" layer="-1.00" shape="504.41,86.92 496.25,87.08 496.03,90.19 494.22,90.52 493.34,94.43 489.36,94.80 488.81,91.06 484.51,90.89 483.90,99.82 493.71,98.92 494.04,97.39 503.47,98.02 504.41,86.92" type="building"/>
   <poly color="red" fill="1" id="118129659" layer="-1.00" shape="492.97,41.12 505.14,40.79 504.78,27.18 492.60,27.51 492.97,41.12" type="building"/>
   <poly color="237,199,199" fill="1" id="118129660" layer="-1.00" shape="483.90,99.82 477.57,98.80 476.32,110.08 482.59,110.82 482.16,114.42 488.99,116.21 500.68,118.72 503.47,98.02 494.04,97.39 493.71,98.92 483.90,99.82" type="amenity"/>
   <poly color="red" fill="1" id="118129660#1" layer="-1.00" shape="483.90,99.82 477.57,98.80 476.32,110.08 482.59,110.82 482.16,114.42 488.99,116.21 500.68,118.72 503.47,98.02 494.04,97.39 493.71,98.92 483.90,99.82" type="building"/>
   <poly color="red" fill="1" id="118129662" layer="-1.00" shape="505.68,60.36 493.50,60.69 493.77,70.52 505.94,70.20 505.68,60.36" type="building"/>
   <poly color="red" fill="1" id="118129663" layer="-1.00" shape="492.97,41.12 493.24,51.01 505.41,50.68 505.14,40.79 492.97,41.12" type="building"/>
   <poly color="red" fill="0" id="118129664" layer="-1.00" shape="519.65,18.50 532.39,17.91 547.58,17.47 551.57,17.62" type="building"/>
   <poly color="red" fill="0" id="118129665" layer="-1.00" shape="477.63,13.71 481.75,13.77" type="building"/>
   <poly color="red" fill="1" id="118442726" layer="-1.00" shape="321.49,88.08 326.13,81.32 332.97,71.38 334.79,71.21 334.43,67.50 332.61,67.67 331.87,59.26 330.99,50.59 323.37,51.50 321.03,51.76 318.88,52.01 319.74,59.50 321.88,59.26 322.95,68.69 320.64,71.70 319.12,70.54 316.71,73.68 318.23,74.85 312.68,82.07 321.49,88.08" type="building"/>
   <poly color="red" fill="1" id="118442729" layer="-1.00" shape="281.20,168.24 284.99,159.99 287.19,155.21 288.73,155.86 290.63,156.65 291.87,153.20 290.19,152.44 278.33,147.10 270.75,163.67 281.20,168.24" type="building"/>
   <poly color="red" fill="1" id="118442730" layer="-1.00" shape="325.28,35.05 323.00,35.32 322.73,32.96 318.63,33.44 318.79,34.77 306.06,36.26 305.93,35.18 301.74,35.67 301.85,36.65 278.37,39.39 278.50,40.51 273.64,42.37 268.83,45.50 267.42,43.52 263.99,45.93 264.41,46.52 252.71,54.75 253.70,56.15 245.73,61.76 242.93,63.65 240.80,65.05 234.05,69.41 236.20,72.39 234.50,73.75 235.92,75.69 233.76,77.21 236.09,80.30 236.51,80.00 238.49,82.82 239.74,81.94 245.02,89.47 243.13,90.78 245.43,94.21 245.97,93.86 247.89,96.71 249.39,95.73 254.48,103.27 252.52,104.58 254.89,108.09 255.39,107.76 257.37,110.70 258.83,109.72 262.74,115.50 261.27,116.58 263.69,119.84 265.15,118.77 270.77,126.37 274.12,128.42 279.86,119.73 276.83,117.82 274.25,113.90 271.56,110.04 273.05,109.03 268.66,102.54 267.16,103.55 264.65,99.92 261.99,95.89 263.57,94.83 259.24,88.41 257.65,89.48 255.22,85.82 252.70,82.18 254.43,81.01 252.17,77.67 250.44,78.84 246.03,72.26 245.19,71.06 247.29,69.64 249.97,67.79 251.49,69.91 257.27,65.96 272.42,55.78 279.78,50.92 288.48,49.70 304.79,47.82 321.66,45.83 322.83,45.63 323.13,48.88 323.37,51.50 330.99,50.59 330.71,48.00 329.55,37.18 325.56,37.59 325.28,35.05" type="building"/>
   <poly color="red" fill="1" id="118934715" layer="-1.00" shape="592.49,837.82 595.22,841.85 598.17,842.87 608.53,835.51 609.33,831.15 607.83,829.08 605.24,829.79 592.49,837.82" type="building"/>
   <poly color="red" fill="1" id="118934716" layer="-1.00" shape="584.57,843.32 574.52,848.38 589.22,850.92 584.57,843.32" type="building"/>
   <poly color="red" fill="1" id="118934718" layer="-1.00" shape="584.57,843.32 589.22,850.92 600.11,848.60 600.34,846.34 598.17,842.87 595.22,841.85 592.49,837.82 584.57,843.32" type="building"/>
   <poly color="red" fill="1" id="119194189" layer="-1.00" shape="716.58,747.73 714.17,747.01 701.93,758.03 717.98,778.80 731.55,768.43 716.58,747.73" type="building"/>
   <poly color="red" fill="1" id="119194195" layer="-1.00" shape="606.24,624.02 598.56,636.41 605.21,640.97 608.05,637.02 612.03,639.66 617.71,630.38 608.93,623.53 606.24,624.02" type="building"/>
   <poly color="red" fill="1" id="119194203" layer="-1.00" shape="637.19,665.51 645.31,655.37 630.79,643.12 619.85,659.15 611.23,673.80 622.42,680.16 618.30,687.25 608.10,681.48 602.69,691.82 611.13,696.78 613.24,692.63 618.79,695.99 627.75,682.08 633.70,671.47 637.19,665.51" type="building"/>
   <poly color="red" fill="1" id="119194206" layer="-1.00" shape="617.71,630.38 612.03,639.66 609.87,642.60 606.13,646.42 599.83,652.74 599.24,653.90 604.39,658.91 614.78,647.79 617.56,650.23 614.46,655.86 619.85,659.15 630.79,643.12 617.71,630.38" type="building"/>
   <poly color="207,245,201" fill="0" id="119776570" layer="-2.00" shape="850.66,392.49 843.25,438.13 827.63,511.08 821.92,530.42 816.28,519.62 817.33,489.83 806.41,481.77 801.13,482.35 784.98,489.36 781.91,499.06 774.13,496.27 768.23,494.74 790.41,433.46 797.24,413.56 805.03,393.29 814.34,374.36 825.72,343.04 837.89,312.18 853.69,277.10" type="tourism"/>
   <poly color="red" fill="1" id="12101107" layer="-1.00" shape="384.84,406.38 363.80,396.37 349.58,389.95 332.09,381.66 318.96,375.18 315.12,373.48 313.45,376.47 310.57,381.92 298.75,376.54 284.50,408.52 347.27,436.76 358.19,441.11 356.22,445.14 357.43,448.70 359.48,454.75 357.62,469.97 356.19,472.84 352.41,477.58 366.40,476.04 368.15,476.11 370.87,476.41 378.89,478.66 388.01,481.20 399.18,483.89 407.71,486.23 413.68,487.03 417.10,487.43 424.19,489.48 440.83,495.44 446.33,474.83 459.48,478.03 472.50,482.30 475.64,480.07 478.69,477.77 485.65,451.71 507.12,458.02 507.53,456.78 506.49,456.43 508.50,450.30 510.22,450.85 516.65,430.81 526.61,433.85 541.54,437.42 549.34,439.13 555.93,437.65 562.26,413.63 569.56,385.89 568.06,377.99 567.04,375.54 557.49,373.07 531.12,371.91 528.15,371.80 525.20,371.46 522.81,371.28 521.22,383.73 481.55,378.79 474.69,377.14 470.50,377.21 467.82,388.86 426.55,382.66 418.12,374.62 399.28,378.88 396.53,383.95 394.16,384.49 386.77,405.79 384.84,406.38" type="building"/>
   <poly color="red" fill="1" id="122720841" layer="-1.00" shape="591.27,772.70 603.49,762.52 598.66,756.23 592.72,751.07 590.42,753.39 586.68,750.07 588.61,747.92 580.91,741.90 575.23,748.52 585.89,758.53 581.69,762.95 591.27,772.70" type="building"/>
   <poly color="red" fill="1" id="122720842" layer="-1.00" shape="528.20,767.40 537.55,773.50 542.54,766.66 546.00,769.10 548.48,766.56 535.07,757.45 531.48,762.60 528.20,767.40" type="building"/>
   <poly color="red" fill="1" id="122720844" layer="-1.00" shape="571.46,689.84 579.02,693.81 584.45,683.49 576.89,679.52 571.46,689.84" type="building"/>
   <poly color="red" fill="1" id="122720845" layer="-1.00" shape="548.92,736.85 558.19,741.49 562.12,744.65 564.47,741.36 561.00,738.68 565.25,730.02 569.92,733.08 572.06,734.65 576.54,724.06 559.52,715.08 554.88,724.70 548.92,736.85" type="building"/>
   <poly color="red" fill="1" id="122720846" layer="-1.00" shape="562.45,706.94 573.08,712.52 582.09,695.41 579.02,693.81 571.46,689.84 562.45,706.94" type="building"/>
   <poly color="red" fill="1" id="122720847" layer="-1.00" shape="542.09,786.87 551.50,776.01 545.30,770.90 541.10,775.75 537.55,773.50 528.20,767.40 524.86,772.27 522.91,775.63 523.65,778.48 542.09,786.87" type="building"/>
   <poly color="red" fill="1" id="122720848" layer="-1.00" shape="560.37,795.84 563.25,795.97 570.89,789.47 578.78,783.10 567.48,772.54 559.84,779.28 554.52,776.61 554.02,777.58 551.50,776.01 542.09,786.87 551.46,791.47 560.37,795.84" type="building"/>
   <poly color="red" fill="1" id="122720849" layer="-1.00" shape="535.07,757.45 548.48,766.56 551.66,769.08 554.11,765.57 556.13,762.70 554.37,761.41 549.29,757.62 556.15,748.23 554.65,746.67 558.19,741.49 548.92,736.85 543.85,745.39 535.07,757.45" type="building"/>
   <poly color="red" fill="1" id="122747233" layer="-1.00" shape="776.08,648.23 772.06,659.75 785.28,664.34 789.30,652.82 776.08,648.23" type="building"/>
   <poly color="red" fill="1" id="122747236" layer="-1.00" shape="789.06,667.10 796.99,669.63 797.58,667.77 802.51,652.39 794.57,649.86 789.06,667.10" type="building"/>
   <poly color="red" fill="1" id="122747237" layer="-1.00" shape="799.43,588.05 795.66,596.62 790.42,607.44 802.42,610.47 806.66,601.81 809.67,603.21 814.32,593.91 799.43,588.05" type="building"/>
   <poly color="red" fill="1" id="122747238" layer="-1.00" shape="772.06,659.75 768.35,670.42 793.10,678.62 795.02,673.28 782.96,669.23 785.28,664.34 772.06,659.75" type="building"/>
   <poly color="red" fill="1" id="122804777" layer="-1.00" shape="813.12,716.29 801.89,712.29 799.40,719.25 795.36,717.81 793.89,721.95 797.72,723.31 809.16,727.37 813.12,716.29" type="building"/>
   <poly color="red" fill="1" id="122804778" layer="-1.00" shape="804.78,738.64 788.58,731.62 786.89,735.50 792.28,737.83 787.39,749.05 798.20,753.74 804.78,738.64" type="building"/>
   <poly color="red" fill="1" id="122804779" layer="-1.00" shape="798.20,753.74 787.39,749.05 781.87,759.47 777.26,757.50 775.41,760.73 790.89,768.47 798.20,753.74" type="building"/>
   <poly color="red" fill="0" id="122804787" layer="-1.00" shape="828.82,790.04 818.21,786.56 809.28,783.76 797.71,779.11 787.30,796.46 781.35,811.57 792.26,812.26 794.12,807.42 808.67,810.12 805.08,811.99 803.63,820.83 803.83,825.30 803.86,828.35 805.51,831.50 810.28,837.62 809.52,843.92 817.22,844.25 822.21,844.47 822.86,838.36 822.50,837.13 826.52,833.15 828.34,828.13 828.66,823.30 827.18,818.26 828.32,816.20 827.04,809.84" type="building"/>
   <poly color="79,230,125" fill="0" id="122804787#1" layer="-2.00" shape="828.82,790.04 818.21,786.56 809.28,783.76 797.71,779.11 787.30,796.46 781.35,811.57 792.26,812.26 794.12,807.42 808.67,810.12 805.08,811.99 803.63,820.83 803.83,825.30 803.86,828.35 805.51,831.50 810.28,837.62 809.52,843.92 817.22,844.25 822.21,844.47 822.86,838.36 822.50,837.13 826.52,833.15 828.34,828.13 828.66,823.30 827.18,818.26 828.32,816.20 827.04,809.84" type="sport"/>
   <poly color="red" fill="1" id="122804788" layer="-1.00" shape="809.16,727.37 797.72,723.31 795.01,730.11 790.20,728.09 788.58,731.62 804.78,738.64 809.16,727.37" type="building"/>
   <poly color="237,199,199" fill="1" id="124529292" layer="-1.00" shape="425.55,482.56 431.80,485.57 438.09,472.59 431.84,469.58 425.55,482.56" type="amenity"/>
   <poly color="red" fill="1" id="124545477" layer="-1.00" shape="177.35,734.47 190.04,734.10 193.42,731.88 192.89,717.11 182.89,717.41 183.17,726.70 178.16,726.71 177.35,734.47" type="building"/>
   <poly color="red" fill="1" id="124772684" layer="-1.00" shape="37.03,445.23 49.30,429.84 48.78,424.52 38.08,414.73 29.25,424.34 34.25,428.91 26.36,437.56 37.03,445.23" type="building"/>
   <poly color="red" fill="1" id="124772685" layer="-1.00" shape="25.80,460.78 34.57,448.65 37.03,445.23 26.36,437.56 21.13,444.80 15.91,441.05 9.91,449.35 25.80,460.78" type="building"/>
   <poly color="red" fill="1" id="124772686" layer="-1.00" shape="19.88,477.01 3.53,465.88 4.44,476.75 0.54,482.27 11.23,489.65 19.88,477.01" type="building"/>
   <poly color="red" fill="1" id="124772687" layer="-1.00" shape="11.23,489.65 0.54,482.27 5.62,500.62 11.23,489.65" type="building"/>
   <poly color="red" fill="1" id="124772688" layer="-1.00" shape="5.62,500.62 0.03,510.04 5.62,500.62" type="building"/>
   <poly color="red" fill="1" id="124800750" layer="-1.00" shape="202.22,690.94 220.07,692.99 219.81,697.28 213.67,697.12 213.66,702.69 219.27,703.04 219.10,707.46 216.49,707.41 202.20,707.12 202.22,690.94" type="building"/>
   <poly color="red" fill="1" id="124800752" layer="-1.00" shape="218.05,726.85 220.61,726.98 220.74,735.35 207.78,735.66 205.37,733.28 204.26,718.62 217.74,718.04 218.05,726.85" type="building"/>
   <poly color="red" fill="1" id="124800753" layer="-1.00" shape="234.10,735.09 234.64,724.19 222.53,723.96 222.43,726.97 220.61,726.98 220.74,735.35 234.10,735.09" type="building"/>
   <poly color="red" fill="1" id="124800754" layer="-1.00" shape="202.52,670.16 212.72,671.79 212.44,675.01 215.48,675.56 215.15,679.47 202.19,677.53 202.52,670.16" type="building"/>
   <poly color="red" fill="1" id="124800755" layer="-1.00" shape="233.31,671.46 230.28,678.31 212.72,671.79 214.03,662.80 233.31,671.46" type="building"/>
   <poly color="red" fill="1" id="124800757" layer="-1.00" shape="202.20,707.12 216.49,707.41 216.54,713.61 221.11,713.79 221.04,717.92 217.74,718.04 204.26,718.62 202.20,707.12" type="building"/>
   <poly color="red" fill="1" id="124800758" layer="-1.00" shape="202.19,677.53 215.15,679.47 214.67,686.24 221.74,687.61 222.82,680.09 229.59,682.12 227.30,694.23 220.07,692.99 202.22,690.94 202.19,677.53" type="building"/>
   <poly color="red" fill="1" id="124800759" layer="-1.00" shape="253.01,718.17 250.42,735.08 234.10,735.09 234.64,724.19 234.83,721.98 246.69,722.73 247.06,718.07 250.98,717.98 253.01,718.17" type="building"/>
   <poly color="237,199,199" fill="1" id="124800760" layer="-1.00" shape="203.63,661.09 214.03,662.80 212.72,671.79 202.52,670.16 203.63,661.09" type="amenity"/>
   <poly color="red" fill="1" id="124800760#1" layer="-1.00" shape="203.63,661.09 214.03,662.80 212.72,671.79 202.52,670.16 203.63,661.09" type="building"/>
   <poly color="red" fill="1" id="124802730" layer="-1.00" shape="243.72,676.26 241.23,687.58 229.59,682.12 230.28,678.31 233.31,671.46 243.72,676.26" type="building"/>
   <poly color="red" fill="1" id="124802732" layer="-1.00" shape="254.06,681.05 243.72,676.26 241.23,687.58 252.73,691.36 254.06,681.05" type="building"/>
   <poly color="red" fill="1" id="124804218" layer="-1.00" shape="182.59,707.09 192.87,707.16 192.89,717.11 182.89,717.41 182.59,707.09" type="building"/>
   <poly color="red" fill="1" id="124804219" layer="-1.00" shape="185.67,669.03 195.56,669.82 194.57,680.47 184.67,679.50 185.67,669.03" type="building"/>
   <poly color="red" fill="1" id="124804220" layer="-1.00" shape="186.78,655.37 196.67,656.16 195.56,669.82 185.67,669.03 186.78,655.37" type="building"/>
   <poly color="red" fill="1" id="124804221" layer="-1.00" shape="184.67,679.50 194.57,680.47 193.11,696.41 182.23,695.87 163.66,693.49 164.25,684.86 174.78,685.37 174.50,689.44 180.82,689.85 181.89,679.41 184.67,679.50" type="building"/>
   <poly color="red" fill="1" id="124804224" layer="-1.00" shape="188.69,634.02 186.78,623.98 196.98,621.22 200.56,625.18 198.78,637.76 193.04,637.32 193.96,633.08 193.10,632.54 188.69,634.02" type="building"/>
   <poly color="red" fill="1" id="124804226" layer="-1.00" shape="187.31,645.19 186.78,655.37 196.67,656.16 198.78,637.76 193.04,637.32 192.19,641.60 189.81,641.47 187.31,645.19" type="building"/>
   <poly color="red" fill="1" id="124804228" layer="-1.00" shape="182.23,695.87 193.11,696.41 192.87,707.16 182.59,707.09 182.23,695.87" type="building"/>
   <poly color="red" fill="1" id="124810137" layer="-1.00" shape="577.05,593.72 580.74,581.69 586.18,583.43 584.92,587.17 589.93,589.24 586.03,598.54 581.71,596.01 577.05,593.72" type="building"/>
   <poly color="red" fill="1" id="124810138" layer="-1.00" shape="493.81,531.37 501.48,534.05 505.94,536.22 501.96,548.07 511.19,551.58 512.12,548.49 537.97,559.08 532.97,573.96 504.08,562.17 486.31,555.29 493.81,531.37" type="building"/>
   <poly color="red" fill="1" id="124810139" layer="-1.00" shape="588.03,578.73 590.33,579.50 605.46,584.51 599.94,604.99 597.86,605.28 593.03,602.48 586.03,598.54 589.93,589.24 584.92,587.17 586.18,583.43 588.03,578.73" type="building"/>
   <poly color="red" fill="1" id="124810141" layer="-1.00" shape="558.10,585.17 562.27,573.28 564.55,574.32 570.62,577.08 574.71,578.95 580.74,581.69 577.05,593.72 567.69,589.40 558.10,585.17" type="building"/>
   <poly color="red" fill="1" id="124810142" layer="-1.00" shape="539.89,576.97 550.59,581.91 558.10,585.17 562.27,573.28 559.60,572.15 554.67,570.06 544.39,565.71 539.89,576.97" type="building"/>
   <poly color="207,245,201" fill="1" id="12644275" layer="-2.00" shape="602.88,85.93 606.91,56.44 654.62,63.27 650.53,92.37 602.88,85.93" type="tourism"/>
   <poly color="red" fill="1" id="132634957" layer="-1.00" shape="349.58,389.95 363.80,396.37 368.69,385.63 369.26,384.37 355.04,377.93 349.58,389.95" type="building"/>
   <poly color="128,255,128" fill="1" id="132634957#1" layer="-1.00" shape="349.58,389.95 363.80,396.37 368.69,385.63 369.26,384.37 355.04,377.93 349.58,389.95" type="historic"/>
   <poly color="red" fill="1" id="132634958" layer="-1.00" shape="298.80,366.29 315.12,373.48 318.96,375.18 324.22,363.32 320.85,361.83 327.34,347.20 323.92,345.58 319.30,343.70 315.00,341.75 312.14,348.22 309.88,347.22 308.12,351.18 310.36,352.18 308.09,357.32 303.65,355.36 298.80,366.29" type="building"/>
   <poly color="128,255,128" fill="1" id="132634958#1" layer="-1.00" shape="298.80,366.29 315.12,373.48 318.96,375.18 324.22,363.32 320.85,361.83 327.34,347.20 323.92,345.58 319.30,343.70 315.00,341.75 312.14,348.22 309.88,347.22 308.12,351.18 310.36,352.18 308.09,357.32 303.65,355.36 298.80,366.29" type="historic"/>
   <poly color="red" fill="1" id="132634959" layer="-1.00" shape="394.16,384.49 396.53,383.95 393.00,372.75 387.00,363.00 380.81,356.61 372.56,350.90 370.68,354.54 363.00,354.01 362.60,368.92 371.20,365.73 381.83,380.21 394.16,384.49" type="building"/>
   <poly color="red" fill="1" id="132634960" layer="-1.00" shape="332.09,381.66 349.58,389.95 355.04,377.93 337.81,370.05 332.09,381.66" type="building"/>
   <poly color="128,255,128" fill="1" id="132634960#1" layer="-1.00" shape="332.09,381.66 349.58,389.95 355.04,377.93 337.81,370.05 332.09,381.66" type="historic"/>
   <poly color="red" fill="1" id="132634961" layer="-1.00" shape="318.96,375.18 332.09,381.66 337.81,370.05 324.22,363.32 318.96,375.18" type="building"/>
   <poly color="128,255,128" fill="1" id="132634961#1" layer="-1.00" shape="318.96,375.18 332.09,381.66 337.81,370.05 324.22,363.32 318.96,375.18" type="historic"/>
   <poly color="red" fill="1" id="132634962" layer="-1.00" shape="268.42,401.30 284.50,408.52 298.75,376.54 282.74,368.84 275.83,384.79 268.42,401.30" type="building"/>
   <poly color="128,255,128" fill="1" id="132634962#1" layer="-1.00" shape="268.42,401.30 284.50,408.52 298.75,376.54 282.74,368.84 275.83,384.79 268.42,401.30" type="historic"/>
   <poly color="207,245,201" fill="1" id="132634962#2" layer="-2.00" shape="268.42,401.30 284.50,408.52 298.75,376.54 282.74,368.84 275.83,384.79 268.42,401.30" type="tourism"/>
   <poly color="red" fill="1" id="132634963" layer="-1.00" shape="363.80,396.37 384.84,406.38 385.62,406.15 386.77,405.79 394.16,384.49 381.83,380.21 378.43,389.76 368.69,385.63 363.80,396.37" type="building"/>
   <poly color="128,255,128" fill="1" id="132634963#1" layer="-1.00" shape="363.80,396.37 384.84,406.38 385.62,406.15 386.77,405.79 394.16,384.49 381.83,380.21 378.43,389.76 368.69,385.63 363.80,396.37" type="historic"/>
   <poly color="red" fill="1" id="132634964" layer="-1.00" shape="284.98,360.09 298.80,366.29 303.65,355.36 296.68,352.44 301.25,343.27 292.44,338.97 283.67,357.41 284.98,360.09" type="building"/>
   <poly color="128,255,128" fill="1" id="132634964#1" layer="-1.00" shape="284.98,360.09 298.80,366.29 303.65,355.36 296.68,352.44 301.25,343.27 292.44,338.97 283.67,357.41 284.98,360.09" type="historic"/>
   <poly color="red" fill="1" id="132635714" layer="-1.00" shape="467.58,388.52 470.35,376.84 469.68,375.16 459.04,373.68 459.98,367.44 455.47,366.96 451.19,366.66 454.06,333.30 450.88,328.92 426.61,327.27 428.12,354.51 428.63,363.69 425.86,363.61 426.60,382.21 448.34,385.56 467.58,388.52" type="building"/>
   <poly color="red" fill="1" id="132635715" layer="-1.00" shape="402.45,344.27 412.87,340.90 407.41,324.96 398.39,329.65 402.45,344.27" type="building"/>
   <poly color="red" fill="1" id="132635716" layer="-1.00" shape="402.81,374.31 413.57,374.19 413.29,364.34 413.34,349.51 412.87,340.90 402.45,344.27 402.81,374.31" type="building"/>
   <poly color="red" fill="1" id="132635717" layer="-1.00" shape="398.39,329.65 407.41,324.96 396.01,312.15 390.98,319.21 390.23,320.24 398.39,329.65" type="building"/>
   <poly color="red" fill="1" id="132635719" layer="-1.00" shape="389.07,318.05 390.98,319.21 396.01,312.15 391.20,311.52 388.28,309.81 387.06,311.49 382.70,308.75 375.50,320.14 384.27,325.65 389.07,318.05" type="building"/>
   <poly color="red" fill="1" id="132975802" layer="-1.00" shape="234.78,114.46 233.91,128.43 241.26,129.19 240.61,135.72 219.58,133.60 221.59,113.90 226.63,114.40 233.46,114.99 234.78,114.46" type="building"/>
   <poly color="237,199,199" fill="1" id="133865260" layer="-1.00" shape="481.55,378.79 521.22,383.73 522.81,371.28 525.20,371.46 527.77,357.77 514.79,355.05 514.02,360.78 496.96,358.46 495.82,363.71 483.47,362.11 480.70,377.75 481.55,378.79" type="amenity"/>
   <poly color="red" fill="1" id="133865260#1" layer="-1.00" shape="481.55,378.79 521.22,383.73 522.81,371.28 525.20,371.46 527.77,357.77 514.79,355.05 514.02,360.78 496.96,358.46 495.82,363.71 483.47,362.11 480.70,377.75 481.55,378.79" type="building"/>
   <poly color="red" fill="1" id="133865261" layer="-1.00" shape="531.12,371.91 557.49,373.07 558.01,362.82 556.82,355.48 555.93,350.33 557.70,350.70 559.13,344.50 553.48,342.65 540.36,338.08 534.14,354.91 531.12,371.91" type="building"/>
   <poly color="red" fill="1" id="134119982" layer="-1.00" shape="418.42,515.09 426.83,516.92 428.08,508.60 436.68,512.10 441.20,513.72 442.32,509.85 445.40,498.17 440.83,495.44 424.19,489.48 421.97,490.75 418.42,515.09" type="building"/>
   <poly color="red" fill="1" id="134119983" layer="-1.00" shape="378.89,478.66 370.87,476.41 365.91,496.57 374.00,498.55 378.89,478.66" type="building"/>
   <poly color="red" fill="1" id="134119984" layer="-1.00" shape="349.62,488.73 352.41,477.58 339.05,481.74 339.36,489.54 349.62,488.73" type="building"/>
   <poly color="red" fill="1" id="134119985" layer="-1.00" shape="388.01,481.20 378.89,478.66 374.00,498.55 382.90,500.68 388.01,481.20" type="building"/>
   <poly color="red" fill="1" id="134119987" layer="-1.00" shape="399.18,483.89 388.01,481.20 382.90,500.68 380.41,511.52 391.61,514.21 399.18,483.89" type="building"/>
   <poly color="red" fill="1" id="134119988" layer="-1.00" shape="418.42,515.09 418.02,528.90 420.60,531.95 438.54,539.39 448.11,516.01 441.20,513.72 436.68,512.10 434.06,519.39 426.83,516.92 418.42,515.09" type="building"/>
   <poly color="red" fill="1" id="134119989" layer="-1.00" shape="357.62,469.97 359.48,454.75 334.88,453.03 334.55,460.88 347.88,459.46 348.32,470.30 357.62,469.97" type="building"/>
   <poly color="128,255,128" fill="1" id="134119989#1" layer="-1.00" shape="357.62,469.97 359.48,454.75 334.88,453.03 334.55,460.88 347.88,459.46 348.32,470.30 357.62,469.97" type="historic"/>
   <poly color="red" fill="1" id="134119990" layer="-1.00" shape="389.77,528.12 405.34,529.68 404.85,512.85 405.01,507.16 408.71,488.86 407.71,486.23 399.18,483.89 391.61,514.21 389.77,528.12" type="building"/>
   <poly color="237,199,199" fill="1" id="134238276" layer="-1.00" shape="242.85,454.18 241.58,461.18 242.95,464.68 251.26,468.87 254.31,460.34 255.01,456.22 242.85,454.18" type="amenity"/>
   <poly color="red" fill="1" id="134238276#1" layer="-1.00" shape="242.85,454.18 241.58,461.18 242.95,464.68 251.26,468.87 254.31,460.34 255.01,456.22 242.85,454.18" type="building"/>
   <poly color="red" fill="1" id="134238277" layer="-1.00" shape="237.25,426.85 245.86,408.28 244.27,404.61 228.31,397.62 223.09,409.80 229.26,412.60 226.73,418.26 221.51,418.09 221.53,421.72 221.19,428.13 233.58,429.20 237.25,426.85" type="building"/>
   <poly color="red" fill="1" id="134238278" layer="-1.00" shape="247.91,435.35 245.21,442.66 258.97,445.81 260.38,439.64 256.61,438.46 247.91,435.35" type="building"/>
   <poly color="red" fill="1" id="134238279" layer="-1.00" shape="252.60,424.46 247.91,435.35 256.61,438.46 260.12,430.92 252.60,424.46" type="building"/>
   <poly color="128,255,128" fill="1" id="134238279#1" layer="-1.00" shape="252.60,424.46 247.91,435.35 256.61,438.46 260.12,430.92 252.60,424.46" type="historic"/>
   <poly color="red" fill="1" id="134238283" layer="-1.00" shape="257.78,419.02 254.99,422.06 252.60,424.46 260.12,430.92 261.57,426.97 257.78,419.02" type="building"/>
   <poly color="128,255,128" fill="1" id="134238283#1" layer="-1.00" shape="257.78,419.02 254.99,422.06 252.60,424.46 260.12,430.92 261.57,426.97 257.78,419.02" type="historic"/>
   <poly color="red" fill="1" id="134238285" layer="-1.00" shape="265.29,414.92 257.78,419.02 261.57,426.97 265.54,427.05 266.89,418.97 265.29,414.92" type="building"/>
   <poly color="128,255,128" fill="1" id="134238285#1" layer="-1.00" shape="265.29,414.92 257.78,419.02 261.57,426.97 265.54,427.05 266.89,418.97 265.29,414.92" type="historic"/>
   <poly color="red" fill="1" id="134238286" layer="-1.00" shape="285.34,421.20 280.00,433.49 293.73,439.42 299.08,427.13 285.34,421.20" type="building"/>
   <poly color="128,255,128" fill="1" id="134238286#1" layer="-1.00" shape="285.34,421.20 280.00,433.49 293.73,439.42 299.08,427.13 285.34,421.20" type="historic"/>
   <poly color="red" fill="1" id="134238287" layer="-1.00" shape="299.08,427.13 293.73,439.42 306.35,444.41 311.21,433.09 305.11,430.15 299.08,427.13" type="building"/>
   <poly color="red" fill="1" id="134238288" layer="-1.00" shape="311.21,433.09 306.35,444.41 305.41,446.65 315.33,450.42 318.54,443.30 316.55,442.35 312.20,440.37 313.58,437.52 318.03,439.74 320.03,435.59 312.00,431.46 311.21,433.09" type="building"/>
   <poly color="128,255,128" fill="1" id="134238288#1" layer="-1.00" shape="311.21,433.09 306.35,444.41 305.41,446.65 315.33,450.42 318.54,443.30 316.55,442.35 312.20,440.37 313.58,437.52 318.03,439.74 320.03,435.59 312.00,431.46 311.21,433.09" type="historic"/>