<?xml version="1.0" encoding="utf-8"?><!-- generated on 10/11/17 17:53:34 by SUMO netconvert Version 0.25.0
<?xml version="1.0" encoding="UTF-8"?>

<configuration xmlns:xsi="http://www.w3.org/2001/XMLSchema-instance" xsi:noNamespaceSchemaLocation="http://sumo.dlr.de/xsd/netconvertConfiguration.xsd">

    <input>
        <type-files value="osmNetconvert.typ.xml"/>
        <osm-files value="HAL_Neustadt_urban_800.osm"/>
    </input>

    <output>
        <output-file value="HAL_Neustadt_urban_800.net.xml"/>
    </output>

    <projection>
        <proj.utm value="true"/>
    </projection>

    <edge_removal>
        <remove-edges.by-type value="highway.track,highway.unsurfaced,highway.raceway,highway.bridleway,highway.path,highway.footway,highway.pedestrian,highway.cycleway,highway.step,highway.steps,highway.stairs,highway.bus_guideway,highway.ford,railway.rail,railway.tram,railway.light_rail,railway.subway,railway.preserved,railway.narrow_gauge,railway.monorail,railway.funicular"/>
    </edge_removal>

</configuration>
-->
<net version="0.25">
   <location convBoundary="0.00,0.00,845.62,855.54" netOffset="-702957.73,-5706391.38" origBoundary="11.922828,51.472200,11.935055,51.479798" projParameter="+proj=utm +zone=32 +ellps=WGS84 +datum=WGS84 +units=m +no_defs"/>
   <type allow="pedestrian" id="highway.bridleway" numLanes="1" oneway="1" priority="1" speed="2.78" width="2.00"/>
   <type allow="bus" id="highway.bus_guideway" numLanes="1" oneway="1" priority="1" speed="8.33"/>
   <type allow="bicycle" id="highway.cycleway" numLanes="1" oneway="0" priority="1" speed="5.56" width="1.00"/>
   <type allow="pedestrian" id="highway.footway" numLanes="1" oneway="1" priority="1" speed="8.33" width="2.00"/>
   <type allow="army" id="highway.ford" numLanes="1" oneway="0" priority="1" speed="2.78"/>
   <type disallow="tram rail_urban rail rail_electric ship" id="highway.living_street" numLanes="1" oneway="0" priority="3" speed="2.78"/>
   <type allow="private emergency authority army vip passenger hov taxi bus coach delivery truck trailer motorcycle evehicle custom1 custom2" id="highway.motorway" numLanes="2" oneway="1" priority="13" speed="44.44"/>
   <type allow="private emergency authority army vip passenger hov taxi bus coach delivery truck trailer motorcycle evehicle custom1 custom2" id="highway.motorway_link" numLanes="1" oneway="1" priority="12" speed="22.22"/>
   <type allow="bicycle pedestrian" id="highway.path" numLanes="1" oneway="1" priority="1" speed="2.78" width="2.00"/>
   <type allow="pedestrian" id="highway.pedestrian" numLanes="1" oneway="1" priority="1" speed="8.33" width="2.00"/>
   <type disallow="tram rail_urban rail rail_electric ship" id="highway.primary" numLanes="2" oneway="0" priority="9" speed="27.78"/>
   <type disallow="tram rail_urban rail rail_electric ship" id="highway.primary_link" numLanes="1" oneway="0" priority="8" speed="22.22"/>
   <type allow="vip" id="highway.raceway" numLanes="2" oneway="0" priority="14" speed="83.33"/>
   <type disallow="tram rail_urban rail rail_electric ship" id="highway.residential" numLanes="1" oneway="0" priority="4" speed="13.89"/>
   <type disallow="tram rail_urban rail rail_electric ship" id="highway.secondary" numLanes="2" oneway="0" priority="7" speed="27.78"/>
   <type disallow="tram rail_urban rail rail_electric ship" id="highway.secondary_link" numLanes="1" oneway="0" priority="6" speed="22.22"/>
   <type allow="delivery bicycle pedestrian" id="highway.service" numLanes="1" oneway="0" priority="2" speed="5.56"/>
   <type disallow="tram rail_urban rail rail_electric ship" id="highway.services" numLanes="1" oneway="0" priority="1" speed="8.33"/>
   <type allow="pedestrian" id="highway.stairs" numLanes="1" oneway="1" priority="1" speed="1.39" width="2.00"/>
   <type allow="pedestrian" id="highway.step" numLanes="1" oneway="1" priority="1" speed="1.39" width="2.00"/>
   <type allow="pedestrian" id="highway.steps" numLanes="1" oneway="1" priority="1" speed="1.39" width="2.00"/>
   <type disallow="tram rail_urban rail rail_electric ship" id="highway.tertiary" numLanes="1" oneway="0" priority="6" speed="22.22"/>
   <type disallow="tram rail_urban rail rail_electric ship" id="highway.tertiary_link" numLanes="1" oneway="0" priority="5" speed="22.22"/>
   <type disallow="tram rail_urban rail rail_electric ship" id="highway.track" numLanes="1" oneway="0" priority="1" speed="5.56"/>
   <type disallow="tram rail_urban rail rail_electric bicycle pedestrian ship" id="highway.trunk" numLanes="2" oneway="0" priority="11" speed="27.78"/>
   <type disallow="tram rail_urban rail rail_electric bicycle pedestrian ship" id="highway.trunk_link" numLanes="1" oneway="0" priority="10" speed="22.22"/>
   <type disallow="tram rail_urban rail rail_electric ship" id="highway.unclassified" numLanes="1" oneway="0" priority="5" speed="13.89"/>
   <type disallow="tram rail_urban rail rail_electric ship" id="highway.unsurfaced" numLanes="1" oneway="0" priority="1" speed="8.33"/>
   <type allow="rail_urban" id="railway.light_rail" numLanes="1" oneway="1" priority="15" speed="27.78"/>
   <type allow="rail" id="railway.preserved" numLanes="1" oneway="1" priority="15" speed="27.78"/>
   <type allow="rail rail_electric" id="railway.rail" numLanes="1" oneway="1" priority="15" speed="83.33"/>
   <type allow="rail_urban" id="railway.subway" numLanes="1" oneway="1" priority="15" speed="27.78"/>
   <type allow="tram" id="railway.tram" numLanes="1" oneway="1" priority="15" speed="13.89"/>
   <edge function="internal" id=":1212433129_0">
      <lane disallow="tram rail_urban rail rail_electric ship" id=":1212433129_0_0" index="0" length="4.82" shape="595.08,277.63 594.39,276.32 594.41,275.40 595.17,274.87 596.65,274.73" speed="13.89"/>
   </edge>
   <edge function="internal" id=":1212936148_0">
      <lane disallow="tram rail_urban rail rail_electric ship" id=":1212936148_0_0" index="0" length="4.82" shape="204.37,41.36 205.32,40.21 206.18,39.89 206.96,40.38 207.65,41.69" speed="13.89"/>
   </edge>
   <edge function="internal" id=":1213065432_0">
      <lane disallow="tram rail_urban rail rail_electric ship" id=":1213065432_0_0" index="0" length="4.82" shape="304.60,16.95 305.93,16.27 306.85,16.31 307.37,17.08 307.49,18.56" speed="13.89"/>
   </edge>
   <edge function="internal" id=":1213065443_0">
      <lane allow="delivery bicycle pedestrian" id=":1213065443_0_0" index="0" length="3.43" shape="44.35,3.66 41.20,5.00" speed="5.56"/>
   </edge>
   <edge function="internal" id=":1213065443_1">
      <lane allow="delivery bicycle pedestrian" id=":1213065443_1_0" index="0" length="4.82" shape="41.54,1.72 42.69,2.67 43.01,3.53 42.52,4.31 41.20,5.00" speed="5.56"/>
   </edge>
   <edge function="internal" id=":1213065471_0">
      <lane allow="delivery bicycle pedestrian" id=":1213065471_0_0" index="0" length="4.82" shape="27.16,3.56 26.01,2.61 25.69,1.75 26.18,0.97 27.50,0.27" speed="5.56"/>
   </edge>
   <edge function="internal" id=":1478000760_0">
      <lane allow="delivery bicycle pedestrian" id=":1478000760_0_0" index="0" length="4.82" shape="616.32,526.18 617.43,525.19 618.33,525.00 619.02,525.61 619.51,527.01" speed="5.56"/>
   </edge>
   <edge function="internal" id=":1478000763_0">
      <lane allow="delivery bicycle pedestrian" id=":1478000763_0_0" index="0" length="4.82" shape="632.12,532.15 633.23,531.16 634.13,530.97 634.83,531.57 635.32,532.98" speed="5.56"/>
   </edge>
   <edge function="internal" id=":1478000764_0">
      <lane allow="delivery bicycle pedestrian" id=":1478000764_0_0" index="0" length="5.23" shape="588.60,539.04 587.11,538.89 585.92,539.21 585.05,539.97 584.48,541.20" speed="5.56"/>
   </edge>
   <edge function="internal" id=":1478000764_1">
      <lane allow="delivery bicycle pedestrian" id=":1478000764_1_0" index="0" length="10.61" shape="588.60,539.04 585.86,538.00 584.17,536.33 583.51,534.05 583.90,531.15" speed="5.56"/>
   </edge>
   <edge function="internal" id=":1478000764_2">
      <lane allow="delivery bicycle pedestrian" id=":1478000764_2_0" index="0" length="4.82" shape="588.60,539.04 587.57,537.96 587.35,537.07 587.93,536.35 589.32,535.82" speed="5.56"/>
   </edge>
   <edge function="internal" id=":1478000764_3">
      <lane allow="delivery bicycle pedestrian" id=":1478000764_3_0" index="0" length="5.07" shape="587.08,532.05 586.89,533.43 587.20,534.52 588.01,535.32 589.32,535.82" speed="5.56"/>
   </edge>
   <edge function="internal" id=":1478000764_4">
      <lane allow="delivery bicycle pedestrian" id=":1478000764_4_0" index="0" length="9.51" shape="587.08,532.05 584.48,541.20" speed="5.56"/>
   </edge>
   <edge function="internal" id=":1478000764_5">
      <lane allow="delivery bicycle pedestrian" id=":1478000764_5_0" index="0" length="4.82" shape="587.08,532.05 585.95,533.01 585.04,533.18 584.36,532.56 583.90,531.15" speed="5.56"/>
   </edge>
   <edge function="internal" id=":1478000764_6">
      <lane allow="delivery bicycle pedestrian" id=":1478000764_6_0" index="0" length="9.51" shape="581.31,540.29 583.90,531.15" speed="5.56"/>
   </edge>
   <edge function="internal" id=":1478000764_7">
      <lane allow="delivery bicycle pedestrian" id=":1478000764_7_0" index="0" length="10.34" shape="581.31,540.29 582.44,537.80 584.15,536.22 586.44,535.56 589.32,535.82" speed="5.56"/>
   </edge>
   <edge function="internal" id=":1478000764_8">
      <lane allow="delivery bicycle pedestrian" id=":1478000764_8_0" index="0" length="4.82" shape="581.31,540.29 582.44,539.33 583.35,539.16 584.03,539.78 584.48,541.20" speed="5.56"/>
   </edge>
   <edge function="internal" id=":1478000766_0">
      <lane allow="delivery bicycle pedestrian" id=":1478000766_0_0" index="0" length="9.26" shape="601.26,535.72 598.76,544.63" speed="5.56"/>
   </edge>
   <edge function="internal" id=":1478000766_1">
      <lane allow="delivery bicycle pedestrian" id=":1478000766_1_0" index="0" length="10.21" shape="601.26,535.72 600.09,538.15 598.37,539.69 596.10,540.33 593.27,540.08" speed="5.56"/>
   </edge>
   <edge function="internal" id=":1478000766_2">
      <lane allow="delivery bicycle pedestrian" id=":1478000766_2_0" index="0" length="4.82" shape="601.26,535.72 600.11,536.66 599.20,536.81 598.53,536.17 598.11,534.74" speed="5.56"/>
   </edge>
   <edge function="internal" id=":1478000766_3">
      <lane allow="delivery bicycle pedestrian" id=":1478000766_3_0" index="0" length="5.19" shape="593.99,536.86 595.46,537.00 596.64,536.70 597.52,535.94 598.11,534.74" speed="5.56"/>
   </edge>
   <edge function="internal" id=":1478000766_4">
      <lane allow="delivery bicycle pedestrian" id=":1478000766_4_0" index="0" length="10.46" shape="593.99,536.86 596.68,537.89 598.38,539.52 599.07,541.77 598.76,544.63" speed="5.56"/>
   </edge>
   <edge function="internal" id=":1478000766_5">
      <lane allow="delivery bicycle pedestrian" id=":1478000766_5_0" index="0" length="4.82" shape="593.99,536.86 595.02,537.94 595.24,538.83 594.66,539.55 593.27,540.08" speed="5.56"/>
   </edge>
   <edge function="internal" id=":1478000766_6">
      <lane allow="delivery bicycle pedestrian" id=":1478000766_6_0" index="0" length="5.03" shape="595.56,543.82 595.71,542.44 595.38,541.36 594.56,540.57 593.27,540.08" speed="5.56"/>
   </edge>
   <edge function="internal" id=":1478000766_7">
      <lane allow="delivery bicycle pedestrian" id=":1478000766_7_0" index="0" length="9.43" shape="595.56,543.82 598.11,534.74" speed="5.56"/>
   </edge>
   <edge function="internal" id=":1478000766_8">
      <lane allow="delivery bicycle pedestrian" id=":1478000766_8_0" index="0" length="4.82" shape="595.56,543.82 596.67,542.82 597.57,542.63 598.27,543.23 598.76,544.63" speed="5.56"/>
   </edge>
   <edge function="internal" id=":1478000767_0">
      <lane allow="delivery bicycle pedestrian" id=":1478000767_0_0" index="0" length="4.82" shape="646.00,544.56 647.09,543.55 647.98,543.34 648.69,543.93 649.21,545.33" speed="5.56"/>
   </edge>
   <edge function="internal" id=":1478000768_0">
      <lane allow="delivery bicycle pedestrian" id=":1478000768_0_0" index="0" length="4.82" shape="663.25,555.96 664.38,554.99 665.28,554.82 665.96,555.44 666.42,556.85" speed="5.56"/>
   </edge>
   <edge function="internal" id=":1478000771_0">
      <lane allow="delivery bicycle pedestrian" id=":1478000771_0_0" index="0" length="9.51" shape="597.33,562.13 588.21,559.45" speed="5.56"/>
   </edge>
   <edge function="internal" id=":1478000771_1">
      <lane allow="delivery bicycle pedestrian" id=":1478000771_1_0" index="0" length="10.33" shape="597.33,562.13 594.82,560.97 593.25,559.25 592.63,556.96 592.95,554.11" speed="5.56"/>
   </edge>
   <edge function="internal" id=":1478000771_2">
      <lane allow="delivery bicycle pedestrian" id=":1478000771_2_0" index="0" length="4.82" shape="597.33,562.13 596.38,560.99 596.21,560.08 596.84,559.41 598.26,558.96" speed="5.56"/>
   </edge>
   <edge function="internal" id=":1478000771_3">
      <lane allow="delivery bicycle pedestrian" id=":1478000771_3_0" index="0" length="5.15" shape="596.15,554.93 595.98,556.37 596.27,557.53 597.04,558.39 598.26,558.96" speed="5.56"/>
   </edge>
   <edge function="internal" id=":1478000771_4">
      <lane allow="delivery bicycle pedestrian" id=":1478000771_4_0" index="0" length="10.51" shape="596.15,554.93 595.05,557.60 593.36,559.25 591.08,559.87 588.21,559.45" speed="5.56"/>
   </edge>
   <edge function="internal" id=":1478000771_5">
      <lane allow="delivery bicycle pedestrian" id=":1478000771_5_0" index="0" length="4.82" shape="596.15,554.93 595.05,555.92 594.14,556.12 593.45,555.52 592.95,554.11" speed="5.56"/>
   </edge>
   <edge function="internal" id=":1478000771_6">
      <lane allow="delivery bicycle pedestrian" id=":1478000771_6_0" index="0" length="5.04" shape="589.14,556.29 590.52,556.49 591.61,556.19 592.42,555.40 592.95,554.11" speed="5.56"/>
   </edge>
   <edge function="internal" id=":1478000771_7">
      <lane allow="delivery bicycle pedestrian" id=":1478000771_7_0" index="0" length="9.50" shape="589.14,556.29 598.26,558.96" speed="5.56"/>
   </edge>
   <edge function="internal" id=":1478000771_8">
      <lane allow="delivery bicycle pedestrian" id=":1478000771_8_0" index="0" length="4.82" shape="589.14,556.29 590.10,557.43 590.26,558.34 589.63,559.01 588.21,559.45" speed="5.56"/>
   </edge>
   <edge function="internal" id=":1478000775_0">
      <lane allow="delivery bicycle pedestrian" id=":1478000775_0_0" index="0" length="9.51" shape="612.27,566.51 603.15,563.83" speed="5.56"/>
   </edge>
   <edge function="internal" id=":1478000775_1">
      <lane allow="delivery bicycle pedestrian" id=":1478000775_1_0" index="0" length="10.33" shape="612.27,566.51 609.75,565.35 608.17,563.63 607.56,561.35 607.89,558.51" speed="5.56"/>
   </edge>
   <edge function="internal" id=":1478000775_2">
      <lane allow="delivery bicycle pedestrian" id=":1478000775_2_0" index="0" length="4.82" shape="612.27,566.51 611.31,565.37 611.15,564.46 611.78,563.78 613.20,563.34" speed="5.56"/>
   </edge>
   <edge function="internal" id=":1478000775_3">
      <lane allow="delivery bicycle pedestrian" id=":1478000775_3_0" index="0" length="5.12" shape="611.09,559.34 610.91,560.77 611.20,561.91 611.97,562.77 613.20,563.34" speed="5.56"/>
   </edge>
   <edge function="internal" id=":1478000775_4">
      <lane allow="delivery bicycle pedestrian" id=":1478000775_4_0" index="0" length="10.48" shape="611.09,559.34 609.97,562.00 608.28,563.63 606.00,564.24 603.15,563.83" speed="5.56"/>
   </edge>
   <edge function="internal" id=":1478000775_5">
      <lane allow="delivery bicycle pedestrian" id=":1478000775_5_0" index="0" length="4.82" shape="611.09,559.34 609.98,560.33 609.07,560.52 608.38,559.91 607.89,558.51" speed="5.56"/>
   </edge>
   <edge function="internal" id=":1478000775_6">
      <lane allow="delivery bicycle pedestrian" id=":1478000775_6_0" index="0" length="5.04" shape="604.08,560.67 605.45,560.86 606.54,560.57 607.36,559.78 607.89,558.51" speed="5.56"/>
   </edge>
   <edge function="internal" id=":1478000775_7">
      <lane allow="delivery bicycle pedestrian" id=":1478000775_7_0" index="0" length="9.50" shape="604.08,560.67 613.20,563.34" speed="5.56"/>
   </edge>
   <edge function="internal" id=":1478000775_8">
      <lane allow="delivery bicycle pedestrian" id=":1478000775_8_0" index="0" length="4.82" shape="604.08,560.67 605.03,561.81 605.20,562.72 604.57,563.39 603.15,563.83" speed="5.56"/>
   </edge>
   <edge function="internal" id=":1478000776_0">
      <lane allow="delivery bicycle pedestrian" id=":1478000776_0_0" index="0" length="9.50" shape="628.48,571.25 619.36,568.58" speed="5.56"/>
   </edge>
   <edge function="internal" id=":1478000776_1">
      <lane allow="delivery bicycle pedestrian" id=":1478000776_1_0" index="0" length="10.33" shape="628.48,571.25 625.96,570.10 624.39,568.37 623.77,566.09 624.10,563.25" speed="5.56"/>
   </edge>
   <edge function="internal" id=":1478000776_2">
      <lane allow="delivery bicycle pedestrian" id=":1478000776_2_0" index="0" length="4.82" shape="628.48,571.25 627.52,570.11 627.36,569.21 627.99,568.53 629.41,568.09" speed="5.56"/>
   </edge>
   <edge function="internal" id=":1478000776_3">
      <lane allow="delivery bicycle pedestrian" id=":1478000776_3_0" index="0" length="5.13" shape="627.30,564.07 627.12,565.51 627.42,566.65 628.18,567.52 629.41,568.09" speed="5.56"/>
   </edge>
   <edge function="internal" id=":1478000776_4">
      <lane allow="delivery bicycle pedestrian" id=":1478000776_4_0" index="0" length="10.49" shape="627.30,564.07 626.19,566.74 624.50,568.38 622.22,568.99 619.36,568.58" speed="5.56"/>
   </edge>
   <edge function="internal" id=":1478000776_5">
      <lane allow="delivery bicycle pedestrian" id=":1478000776_5_0" index="0" length="4.82" shape="627.30,564.07 626.19,565.06 625.29,565.26 624.59,564.65 624.10,563.25" speed="5.56"/>
   </edge>
   <edge function="internal" id=":1478000776_6">
      <lane allow="delivery bicycle pedestrian" id=":1478000776_6_0" index="0" length="5.04" shape="620.29,565.42 621.66,565.61 622.76,565.32 623.57,564.53 624.10,563.25" speed="5.56"/>
   </edge>
   <edge function="internal" id=":1478000776_7">
      <lane allow="delivery bicycle pedestrian" id=":1478000776_7_0" index="0" length="9.50" shape="620.29,565.42 629.41,568.09" speed="5.56"/>
   </edge>
   <edge function="internal" id=":1478000776_8">
      <lane allow="delivery bicycle pedestrian" id=":1478000776_8_0" index="0" length="4.82" shape="620.29,565.42 621.25,566.55 621.41,567.46 620.78,568.14 619.36,568.58" speed="5.56"/>
   </edge>
   <edge function="internal" id=":1478000777_0">
      <lane allow="delivery bicycle pedestrian" id=":1478000777_0_0" index="0" length="9.51" shape="644.82,576.05 635.69,573.37" speed="5.56"/>
   </edge>
   <edge function="internal" id=":1478000777_1">
      <lane allow="delivery bicycle pedestrian" id=":1478000777_1_0" index="0" length="10.34" shape="644.82,576.05 642.33,574.90 640.76,573.17 640.13,570.87 640.42,568.00" speed="5.56"/>
   </edge>
   <edge function="internal" id=":1478000777_2">
      <lane allow="delivery bicycle pedestrian" id=":1478000777_2_0" index="0" length="4.82" shape="644.82,576.05 643.86,574.91 643.70,574.00 644.33,573.32 645.75,572.88" speed="5.56"/>
   </edge>
   <edge function="internal" id=":1478000777_3">
      <lane allow="delivery bicycle pedestrian" id=":1478000777_3_0" index="0" length="5.21" shape="643.63,568.77 643.47,570.25 643.77,571.43 644.53,572.30 645.75,572.88" speed="5.56"/>
   </edge>
   <edge function="internal" id=":1478000777_4">
      <lane allow="delivery bicycle pedestrian" id=":1478000777_4_0" index="0" length="10.59" shape="643.63,568.77 642.55,571.48 640.87,573.16 638.58,573.79 635.69,573.37" speed="5.56"/>
   </edge>
   <edge function="internal" id=":1478000777_5">
      <lane allow="delivery bicycle pedestrian" id=":1478000777_5_0" index="0" length="4.82" shape="643.63,568.77 642.54,569.78 641.64,569.99 640.93,569.40 640.42,568.00" speed="5.56"/>
   </edge>
   <edge function="internal" id=":1478000777_6">
      <lane allow="delivery bicycle pedestrian" id=":1478000777_6_0" index="0" length="5.06" shape="636.62,570.20 638.00,570.40 639.10,570.10 639.90,569.30 640.42,568.00" speed="5.56"/>
   </edge>
   <edge function="internal" id=":1478000777_7">
      <lane allow="delivery bicycle pedestrian" id=":1478000777_7_0" index="0" length="9.51" shape="636.62,570.20 645.75,572.88" speed="5.56"/>
   </edge>
   <edge function="internal" id=":1478000777_8">
      <lane allow="delivery bicycle pedestrian" id=":1478000777_8_0" index="0" length="4.82" shape="636.62,570.20 637.58,571.34 637.74,572.25 637.11,572.93 635.69,573.37" speed="5.56"/>
   </edge>
   <edge function="internal" id=":1478000778_0">
      <lane allow="delivery bicycle pedestrian" id=":1478000778_0_0" index="0" length="9.50" shape="662.70,581.28 653.59,578.61" speed="5.56"/>
   </edge>
   <edge function="internal" id=":1478000778_1">
      <lane allow="delivery bicycle pedestrian" id=":1478000778_1_0" index="0" length="10.32" shape="662.70,581.28 660.14,580.12 658.57,578.40 657.97,576.14 658.35,573.32" speed="5.56"/>
   </edge>
   <edge function="internal" id=":1478000778_2">
      <lane allow="delivery bicycle pedestrian" id=":1478000778_2_0" index="0" length="4.82" shape="662.70,581.28 661.75,580.14 661.58,579.24 662.21,578.56 663.63,578.12" speed="5.56"/>
   </edge>
   <edge function="internal" id=":1478000778_3">
      <lane allow="delivery bicycle pedestrian" id=":1478000778_3_0" index="0" length="5.04" shape="661.53,574.22 661.34,575.60 661.62,576.71 662.39,577.55 663.63,578.12" speed="5.56"/>
   </edge>
   <edge function="internal" id=":1478000778_4">
      <lane allow="delivery bicycle pedestrian" id=":1478000778_4_0" index="0" length="10.37" shape="661.53,574.22 660.37,576.82 658.67,578.42 656.40,579.02 653.59,578.61" speed="5.56"/>
   </edge>
   <edge function="internal" id=":1478000778_5">
      <lane allow="delivery bicycle pedestrian" id=":1478000778_5_0" index="0" length="4.82" shape="661.53,574.22 660.40,575.19 659.49,575.36 658.81,574.74 658.35,573.32" speed="5.56"/>
   </edge>
   <edge function="internal" id=":1478000778_6">
      <lane allow="delivery bicycle pedestrian" id=":1478000778_6_0" index="0" length="5.01" shape="654.51,575.45 655.88,575.64 656.97,575.35 657.79,574.58 658.35,573.32" speed="5.56"/>
   </edge>
   <edge function="internal" id=":1478000778_7">
      <lane allow="delivery bicycle pedestrian" id=":1478000778_7_0" index="0" length="9.50" shape="654.51,575.45 663.63,578.12" speed="5.56"/>
   </edge>
   <edge function="internal" id=":1478000778_8">
      <lane allow="delivery bicycle pedestrian" id=":1478000778_8_0" index="0" length="4.82" shape="654.51,575.45 655.47,576.59 655.63,577.49 655.01,578.17 653.59,578.61" speed="5.56"/>
   </edge>
   <edge function="internal" id=":1478000780_0">
      <lane disallow="tram rail_urban rail rail_electric ship" id=":1478000780_0_0" index="0" length="9.68" shape="678.80,579.96 674.87,588.81" speed="13.89"/>
   </edge>
   <edge function="internal" id=":1478000780_1">
      <lane allow="delivery bicycle pedestrian" id=":1478000780_1_0" index="0" length="5.10" shape="678.80,579.96 677.39,582.19 675.46,583.52 675.35,583.54" speed="9.73"/>
   </edge>
   <edge function="internal" id=":1478000780_2">
      <lane disallow="tram rail_urban rail rail_electric ship" id=":1478000780_2_0" index="0" length="2.41" shape="678.80,579.96 677.56,580.77 676.64,580.83" speed="13.89"/>
   </edge>
   <edge function="internal" id=":1478000780_9">
      <lane id=":1478000780_9_0" index="0" length="5.38" shape="675.35,583.54 673.02,583.93 670.05,583.44" speed="9.73"/>
   </edge>
   <edge function="internal" id=":1478000780_10">
      <lane id=":1478000780_10_0" index="0" length="2.41" shape="676.64,580.83 676.04,580.12 675.77,578.66" speed="13.89"/>
   </edge>
   <edge function="internal" id=":1478000780_3">
      <lane disallow="tram rail_urban rail rail_electric ship" id=":1478000780_3_0" index="0" length="5.60" shape="670.98,580.28 672.65,580.57 674.00,580.41 675.04,579.77 675.77,578.66" speed="9.73"/>
   </edge>
   <edge function="internal" id=":1478000780_4">
      <lane disallow="tram rail_urban rail rail_electric ship" id=":1478000780_4_0" index="0" length="11.08" shape="670.98,580.28 673.80,581.56 675.39,583.42 675.75,585.83 674.87,588.81" speed="9.73"/>
   </edge>
   <edge function="internal" id=":1478000780_5">
      <lane allow="delivery bicycle pedestrian" id=":1478000780_5_0" index="0" length="4.82" shape="670.98,580.28 671.94,581.42 672.10,582.32 671.47,583.00 670.05,583.44" speed="5.56"/>
   </edge>
   <edge function="internal" id=":1478000780_6">
      <lane allow="delivery bicycle pedestrian" id=":1478000780_6_0" index="0" length="5.18" shape="671.87,587.43 672.28,586.04 672.11,584.91 671.37,584.04 670.05,583.44" speed="9.73"/>
   </edge>
   <edge function="internal" id=":1478000780_7">
      <lane disallow="tram rail_urban rail rail_electric ship" id=":1478000780_7_0" index="0" length="9.60" shape="671.87,587.43 675.77,578.66" speed="13.89"/>
   </edge>
   <edge function="internal" id=":1478000780_8">
      <lane disallow="tram rail_urban rail rail_electric ship" id=":1478000780_8_0" index="0" length="2.41" shape="671.87,587.43 673.13,586.65 674.06,586.62" speed="13.89"/>
   </edge>
   <edge function="internal" id=":1478000780_11">
      <lane id=":1478000780_11_0" index="0" length="2.41" shape="674.06,586.62 674.63,587.34 674.87,588.81" speed="13.89"/>
   </edge>
   <edge function="internal" id=":1503141079_0">
      <lane disallow="tram rail_urban rail rail_electric ship" id=":1503141079_0_0" index="0" length="0.10" shape="37.58,197.74 37.58,197.75" speed="13.89"/>
   </edge>
   <edge function="internal" id=":1642008696_0">
      <lane allow="delivery bicycle pedestrian" id=":1642008696_0_0" index="0" length="4.82" shape="23.02,272.09 23.97,270.94 24.83,270.61 25.61,271.10 26.31,272.42" speed="5.56"/>
   </edge>
   <edge function="internal" id=":1642008699_0">
      <lane allow="delivery bicycle pedestrian" id=":1642008699_0_0" index="0" length="12.91" shape="22.95,336.40 20.32,335.49 18.56,333.48 17.68,330.36 17.68,326.15" speed="13.89"/>
   </edge>
   <edge function="internal" id=":1642008699_1">
      <lane disallow="tram rail_urban rail rail_electric ship" id=":1642008699_1_0" index="0" length="4.82" shape="23.34,333.13 22.21,332.16 21.89,331.29 22.40,330.52 23.73,329.85" speed="22.22"/>
   </edge>
   <edge function="internal" id=":1642008699_2">
      <lane disallow="tram rail_urban rail rail_electric ship" id=":1642008699_2_0" index="0" length="4.97" shape="20.97,326.45 21.03,327.80 21.52,328.82 22.41,329.50 23.73,329.85" speed="13.89"/>
   </edge>
   <edge function="internal" id=":1642008699_3">
      <lane allow="delivery bicycle pedestrian" id=":1642008699_3_0" index="0" length="4.82" shape="20.97,326.45 20.03,327.60 19.17,327.94 18.39,327.45 17.68,326.15" speed="5.56"/>
   </edge>
   <edge function="internal" id=":1642027700_0">
      <lane allow="delivery bicycle pedestrian" id=":1642027700_0_0" index="0" length="4.82" shape="472.36,340.27 473.40,341.34 473.62,342.23 473.04,342.95 471.66,343.49" speed="5.56"/>
   </edge>
   <edge function="internal" id=":1642027762_0">
      <lane allow="delivery bicycle pedestrian" id=":1642027762_0_0" index="0" length="0.48" shape="327.87,364.07 327.74,364.53" speed="5.56"/>
   </edge>
   <edge function="internal" id=":1642027762_1">
      <lane allow="delivery bicycle pedestrian" id=":1642027762_1_0" index="0" length="2.41" shape="327.87,364.07 326.79,365.10 325.90,365.33" speed="5.56"/>
   </edge>
   <edge function="internal" id=":1642027762_4">
      <lane id=":1642027762_4_0" index="0" length="2.41" shape="325.90,365.33 325.18,364.75 324.64,363.36" speed="5.56"/>
   </edge>
   <edge function="internal" id=":1642027762_2">
      <lane allow="delivery bicycle pedestrian" id=":1642027762_2_0" index="0" length="0.16" shape="324.60,363.51 324.64,363.36" speed="5.56"/>
   </edge>
   <edge function="internal" id=":1642027762_3">
      <lane allow="delivery bicycle pedestrian" id=":1642027762_3_0" index="0" length="2.41" shape="324.60,363.51 325.77,362.59 326.68,362.45" speed="5.56"/>
   </edge>
   <edge function="internal" id=":1642027762_5">
      <lane id=":1642027762_5_0" index="0" length="2.41" shape="326.68,362.45 327.34,363.10 327.74,364.53" speed="5.56"/>
   </edge>
   <edge function="internal" id=":1642027781_0">
      <lane allow="delivery bicycle pedestrian" id=":1642027781_0_0" index="0" length="0.10" shape="21.66,318.89 21.66,318.87" speed="5.56"/>
   </edge>
   <edge function="internal" id=":1642027781_1">
      <lane allow="delivery bicycle pedestrian" id=":1642027781_1_0" index="0" length="2.41" shape="21.66,318.89 20.71,320.04 19.85,320.37" speed="5.56"/>
   </edge>
   <edge function="internal" id=":1642027781_4">
      <lane id=":1642027781_4_0" index="0" length="2.41" shape="19.85,320.37 19.07,319.87 18.37,318.56" speed="5.56"/>
   </edge>
   <edge function="internal" id=":1642027781_2">
      <lane allow="delivery bicycle pedestrian" id=":1642027781_2_0" index="0" length="0.10" shape="18.37,318.56 18.37,318.56" speed="5.56"/>
   </edge>
   <edge function="internal" id=":1642027781_3">
      <lane allow="delivery bicycle pedestrian" id=":1642027781_3_0" index="0" length="2.41" shape="18.37,318.56 19.31,317.41 20.17,317.08" speed="5.56"/>
   </edge>
   <edge function="internal" id=":1642027781_5">
      <lane id=":1642027781_5_0" index="0" length="2.41" shape="20.17,317.08 20.95,317.56 21.66,318.87" speed="5.56"/>
   </edge>
   <edge function="internal" id=":1642027815_0">
      <lane disallow="tram rail_urban rail rail_electric ship" id=":1642027815_0_0" index="0" length="0.73" shape="611.36,458.50 611.03,459.15" speed="13.89"/>
   </edge>
   <edge function="internal" id=":1642027815_1">