<?xml version="1.0" encoding="utf-8"?><!-- generated on 10/11/17 17:53:38 by SUMO polyconvert Version 0.25.0
<?xml version="1.0" encoding="UTF-8"?>

<configuration xmlns:xsi="http://www.w3.org/2001/XMLSchema-instance" xsi:noNamespaceSchemaLocation="http://sumo.dlr.de/xsd/polyconvertConfiguration.xsd">

    <input>
        <net-file value="HAL_Neustadt_urban_800.net.xml"/>
        <osm-files value="HAL_Neustadt_urban_800.osm"/>
        <type-file value="osmPolyconvert.typ.xml"/>
    </input>

    <output>
        <output-file value="HAL_Neustadt_urban_800.poly.xml"/>
    </output>

    <projection>
        <proj.utm value="true"/>
    </projection>

    <processing>
        <poi-layer-offset value="5"/>
    </processing>

</configuration>
-->
<additional>
   <location convBoundary="-2.69,0.00,871.58,876.22" netOffset="-702957.73,-5706391.38" origBoundary="11.922820,51.472200,11.935099,51.479799" projParameter="+proj=utm +zone=32 +ellps=WGS84 +datum=WGS84 +units=m +no_defs"/>
   <poly color="207,245,201" fill="0" id="110659953" layer="-2.00" shape="829.16,185.11 821.06,180.41 813.29,176.56 792.89,170.58 786.50,169.70 781.35,169.72 738.17,171.75 731.49,171.56 727.05,171.12 723.50,169.86 666.20,148.32 633.38,134.12 628.45,131.51 624.44,128.52 621.85,125.42 603.65,97.88 585.01,68.51 583.39,65.25 582.39,60.88 579.66,48.60 579.23,45.07 577.25,41.29 574.04,36.55" type="tourism"/>
   <poly color="red" fill="1" id="119294644" layer="-1.00" shape="821.30,638.84 823.06,627.78 836.57,641.27 821.30,638.84" type="building"/>
   <poly color="red" fill="0" id="120160815" layer="-1.00" shape="455.15,855.42 443.29,852.34" type="building"/>
   <poly color="red" fill="1" id="120162868" layer="-1.00" shape="493.24,796.60 582.70,819.55 582.10,821.87 580.66,826.97 579.72,830.59 577.47,830.03 565.08,826.85 548.18,822.52 532.67,818.54 516.25,814.33 500.01,810.18 490.43,807.52 493.24,796.60" type="building"/>
   <poly color="red" fill="1" id="120162869" layer="-1.00" shape="582.10,821.87 587.35,823.22 586.07,828.37 580.66,826.97 582.10,821.87" type="building"/>
   <poly color="red" fill="1" id="120162870" layer="-1.00" shape="617.31,685.51 622.55,687.04 621.40,691.37 616.19,690.07 617.31,685.51" type="building"/>
   <poly color="red" fill="1" id="120162871" layer="-1.00" shape="530.00,660.49 617.70,683.48 617.31,685.51 616.19,690.07 615.05,694.16 527.00,671.19 530.00,660.49" type="building"/>
   <poly color="red" fill="1" id="120162872" layer="-1.00" shape="511.03,728.53 599.85,751.82 599.25,754.16 597.94,759.22 596.99,762.66 508.04,739.23 511.03,728.53" type="building"/>
   <poly color="red" fill="1" id="120162873" layer="-1.00" shape="585.70,829.84 596.36,832.49 599.86,818.36 603.30,804.71 606.99,790.31 608.70,783.64 598.16,780.96 587.35,823.22 586.07,828.37 585.70,829.84" type="building"/>
   <poly color="red" fill="1" id="120162874" layer="-1.00" shape="599.25,754.16 604.14,755.43 602.82,760.48 597.94,759.22 599.25,754.16" type="building"/>
   <poly color="red" fill="1" id="120162875" layer="-1.00" shape="621.09,692.56 631.55,695.31 644.43,646.46 633.97,643.71 622.55,687.04 621.40,691.37 621.09,692.56" type="building"/>
   <poly color="red" fill="1" id="120162876" layer="-1.00" shape="602.56,761.39 613.38,764.26 626.23,715.96 615.42,713.09 604.14,755.43 602.82,760.48 602.56,761.39" type="building"/>
   <poly color="red" fill="1" id="120163263" layer="-1.00" shape="505.41,540.08 517.11,494.65 584.81,511.99 573.12,557.42 505.41,540.08" type="building"/>
   <poly color="237,199,255" fill="1" id="120163263#1" layer="-1.00" shape="505.41,540.08 517.11,494.65 584.81,511.99 573.12,557.42 505.41,540.08" type="shop"/>
   <poly color="red" fill="1" id="120163264" layer="-1.00" shape="535.94,581.64 653.06,612.14 649.71,624.95 643.97,623.46 632.25,620.39 620.73,617.39 609.06,614.35 597.75,611.41 585.67,608.26 574.19,605.27 562.48,602.22 551.23,599.29 539.33,596.18 532.59,594.43 535.94,581.64" type="building"/>
   <poly color="red" fill="1" id="120163265" layer="-1.00" shape="445.83,524.93 505.41,540.08 517.11,494.65 520.95,479.22 461.40,464.05 445.83,524.93" type="building"/>
   <poly color="237,199,255" fill="1" id="120163265#1" layer="-1.00" shape="445.83,524.93 505.41,540.08 517.11,494.65 520.95,479.22 461.40,464.05 445.83,524.93" type="shop"/>
   <poly color="red" fill="1" id="121260561" layer="-1.00" shape="846.29,725.45 835.39,722.73 832.52,734.17 843.42,736.89 843.83,735.25 845.03,730.48 846.29,725.45" type="building"/>
   <poly color="red" fill="1" id="121260562" layer="-1.00" shape="678.93,768.52 668.35,765.81 687.93,689.76 698.52,692.48 698.41,692.90 698.25,693.52 697.23,697.51 694.66,707.45 691.39,720.16 687.83,733.98 684.16,748.21 680.66,761.81 678.93,768.52" type="building"/>
   <poly color="red" fill="1" id="121260564" layer="-1.00" shape="850.10,731.76 846.55,811.78 834.61,809.40 835.99,802.50 838.34,790.66 840.66,778.97 843.02,767.10 845.24,755.86 847.64,743.65 848.91,736.52 850.10,731.76" type="building"/>
   <poly color="red" fill="0" id="121260568" layer="-1.00" shape="839.48,849.06 826.76,846.62" type="building"/>
   <poly color="red" fill="1" id="121260570" layer="-1.00" shape="696.56,771.45 794.83,796.58 792.23,806.70 784.49,804.72 771.06,801.28 756.77,797.62 742.98,794.10 728.82,790.48 715.22,786.99 701.44,783.47 693.97,781.57 696.56,771.45" type="building"/>
   <poly color="184,184,179" fill="1" id="134419105" layer="-1.00" shape="663.39,585.80 575.35,559.67 587.87,513.97 611.49,521.77 635.57,530.61 670.63,557.66 663.39,585.80" type="parking"/>
   <poly color="red" fill="1" id="137026478" layer="-1.00" shape="82.94,634.82 79.95,646.44 64.76,642.53 61.86,653.81 121.72,669.11 124.61,657.85 108.37,653.66 111.37,642.02 124.80,645.46 127.47,635.13 76.86,622.15 74.18,632.56 82.94,634.82" type="building"/>
   <poly color="red" fill="1" id="137026479" layer="-1.00" shape="111.75,458.14 113.05,449.23 115.38,433.06 117.85,416.03 120.22,399.68 121.56,390.46 110.54,388.43 100.17,456.47 111.75,458.14" type="building"/>
   <poly color="red" fill="1" id="137026481" layer="-1.00" shape="223.08,500.91 225.34,492.21 228.69,479.33 232.03,466.50 235.38,453.57 238.73,440.72 242.09,427.77 245.45,414.83 248.76,402.13 252.16,389.02 253.70,383.09 242.37,380.17 211.75,497.97 223.08,500.91" type="building"/>
   <poly color="red" fill="1" id="137026489" layer="-1.00" shape="412.05,568.26 416.18,552.70 399.06,548.17 394.92,563.72 412.05,568.26" type="building"/>
   <poly color="red" fill="1" id="137026490" layer="-1.00" shape="341.26,483.64 344.12,472.75 265.38,452.18 262.57,463.15 270.93,465.26 283.87,468.64 296.77,472.01 310.18,475.52 322.98,478.86 335.39,482.10 341.26,483.64" type="building"/>
   <poly color="red" fill="1" id="137026491" layer="-1.00" shape="62.55,449.99 63.85,441.13 66.24,424.80 68.80,407.28 71.05,391.95 72.34,383.16 59.51,381.29 49.72,448.12 62.55,449.99" type="building"/>
   <poly color="red" fill="1" id="137026493" layer="-1.00" shape="182.28,552.73 183.79,542.72 130.57,534.69 46.34,522.01 44.83,532.01 182.28,552.73" type="building"/>
   <poly color="red" fill="1" id="137026496" layer="-1.00" shape="398.05,505.48 408.50,508.16 418.36,510.73 419.64,511.03 433.10,459.01 411.50,453.45 398.05,505.48" type="building"/>
   <poly color="red" fill="1" id="137026497" layer="-1.00" shape="84.03,647.50 86.86,636.53 105.08,641.21 102.27,652.09 84.03,647.50" type="building"/>
   <poly color="red" fill="1" id="137026498" layer="-1.00" shape="326.50,536.09 329.28,525.01 321.10,522.96 321.47,521.47 312.49,519.22 312.09,520.78 307.88,519.73 308.28,518.17 299.79,516.05 299.40,517.59 294.39,516.34 294.77,514.85 286.92,512.88 286.55,514.34 281.72,513.13 282.08,511.72 274.47,509.81 274.13,511.22 268.82,509.90 269.17,508.51 261.14,506.50 260.79,507.91 250.76,505.40 247.99,516.45 257.32,518.78 269.91,521.94 282.94,525.20 295.73,528.39 308.59,531.61 321.46,534.83 326.50,536.09" type="building"/>
   <poly color="red" fill="1" id="137026499" layer="-1.00" shape="420.41,582.34 430.03,544.55 410.79,539.71 400.93,537.14 390.84,534.61 381.22,572.41 420.41,582.34" type="building"/>
   <poly color="red" fill="1" id="137026500" layer="-1.00" shape="187.49,504.01 189.34,491.80 53.30,471.26 51.45,483.44 61.69,484.98 78.31,487.49 95.32,490.07 111.82,492.55 128.68,495.10 145.47,497.64 162.33,500.18 179.00,502.72 187.49,504.01" type="building"/>
   <poly color="red" fill="1" id="137026501" layer="-1.00" shape="384.07,425.09 372.86,422.29 369.50,435.64 374.86,436.97 380.69,438.45 384.07,425.09" type="building"/>
   <poly color="red" fill="1" id="137026529" layer="-1.00" shape="312.82,353.45 314.64,341.35 149.82,316.61 148.00,328.71 312.82,353.45" type="building"/>
   <poly color="red" fill="1" id="137026530" layer="-1.00" shape="247.72,227.26 251.97,215.42 237.74,210.34 233.49,222.18 247.72,227.26" type="building"/>
   <poly color="red" fill="1" id="137026532" layer="-1.00" shape="276.29,233.54 279.98,223.58 269.87,219.79 267.61,225.75 266.11,229.79 276.29,233.54" type="building"/>
   <poly color="red" fill="1" id="137026533" layer="-1.00" shape="7.82,526.15 15.42,477.92 7.82,526.15" type="building"/>
   <poly color="red" fill="1" id="137026535" layer="-1.00" shape="125.14,324.57 127.03,311.20 47.10,299.95 45.21,313.30 125.14,324.57" type="building"/>
   <poly color="red" fill="1" id="137026538" layer="-1.00" shape="400.73,351.92 407.96,353.92 407.07,357.29 403.50,356.36 398.19,376.50 405.54,378.43 403.71,385.61 413.96,388.21 420.08,364.28 411.98,362.22 412.93,358.62 415.66,359.33 421.26,338.05 414.40,336.25 415.94,330.71 407.27,328.31 400.73,351.92" type="building"/>
   <poly color="red" fill="1" id="137026540" layer="-1.00" shape="225.00,305.85 226.45,296.32 174.96,288.54 173.51,298.06 225.00,305.85" type="building"/>
   <poly color="red" fill="1" id="137026541" layer="-1.00" shape="201.46,432.10 203.07,420.52 186.91,418.28 183.61,417.83 142.35,412.13 140.74,423.70 190.55,430.59 201.46,432.10" type="building"/>
   <poly color="red" fill="1" id="137026542" layer="-1.00" shape="196.05,205.50 201.29,196.92 190.99,190.65 185.75,199.23 196.05,205.50" type="building"/>
   <poly color="red" fill="1" id="137026543" layer="-1.00" shape="225.74,218.54 229.89,207.06 215.04,201.72 210.88,213.21 225.74,218.54" type="building"/>
   <poly color="red" fill="0" id="138122848" layer="-1.00" shape="184.82,15.43 186.90,15.63 186.29,22.93 193.83,23.54 194.44,16.26 200.23,16.76" type="building"/>
   <poly color="237,199,255" fill="0" id="138122848#1" layer="-1.00" shape="184.82,15.43 186.90,15.63 186.29,22.93 193.83,23.54 194.44,16.26 200.23,16.76" type="shop"/>
   <poly color="181,209,209" fill="0" id="151103752" layer="-4.00" shape="331.11,39.18 426.77,16.21" type="water"/>
   <poly color="red" fill="1" id="151376265" layer="-1.00" shape="675.20,372.36 681.19,375.92 693.43,383.20 707.00,391.28 718.53,398.14 730.83,405.47 743.59,413.06 755.61,420.22 768.81,428.07 779.61,434.50 787.31,439.09 793.29,429.11 681.17,362.38 675.20,372.36" type="building"/>
   <poly color="red" fill="1" id="151376267" layer="-1.00" shape="649.54,420.60 654.90,423.76 667.84,431.42 679.99,438.67 692.63,446.13 704.78,453.32 717.56,460.87 729.83,468.12 742.24,475.46 754.53,482.72 766.95,490.07 774.48,494.51 775.92,492.11 780.59,484.24 655.66,410.32 649.54,420.60" type="building"/>
   <poly color="red" fill="1" id="151376275" layer="-1.00" shape="551.13,271.85 559.19,276.53 576.60,286.62 595.13,254.82 578.01,244.89 569.67,240.06 551.13,271.85" type="building"/>
   <poly color="red" fill="1" id="151376277" layer="-1.00" shape="798.41,380.75 811.37,382.87 822.96,384.78 835.35,386.81 846.60,388.65 858.64,390.63 800.27,369.37 799.81,372.13 799.14,376.33 798.41,380.75" type="building"/>
   <poly color="red" fill="1" id="151376281" layer="-1.00" shape="556.63,396.45 566.36,402.18 573.83,389.52 585.32,369.95 601.71,342.18 616.24,317.56 623.29,305.60 613.64,299.93 556.63,396.45" type="building"/>
   <poly color="red" fill="1" id="151376282" layer="-1.00" shape="605.34,430.17 613.02,434.68 617.24,427.52 624.29,415.65 631.77,403.07 639.22,390.54 646.71,377.93 653.47,366.57 660.94,354.00 668.77,340.83 672.15,335.10 664.14,330.40 605.34,430.17" type="building"/>
   <poly color="207,245,201" fill="1" id="151773411" layer="-2.00" shape="849.42,115.71" type="leisure"/>
   <poly color="184,184,179" fill="1" id="178706081" layer="-1.00" shape="61.74,371.59 126.54,378.82 128.70,357.53 64.49,349.38 61.74,371.59" type="parking"/>
   <poly color="184,184,179" fill="1" id="178706084" layer="-1.00" shape="12.28,380.91 31.96,384.13 33.44,375.10 34.33,369.67 37.37,351.09 17.69,347.88 12.65,378.68 12.28,380.91" type="parking"/>
   <poly color="184,184,179" fill="0" id="178706091" layer="-1.00" shape="26.00,472.48 26.66,467.96 30.10,444.54" type="parking"/>
   <poly color="red" fill="1" id="178706092" layer="-1.00" shape="30.23,443.06 38.56,391.21 25.90,389.18 25.05,394.49 14.88,392.86 12.09,410.16 30.23,443.06" type="building"/>
   <poly color="237,199,255" fill="1" id="178706092#1" layer="-1.00" shape="30.23,443.06 38.56,391.21 25.90,389.18 25.05,394.49 14.88,392.86 12.09,410.16 30.23,443.06" type="shop"/>
   <poly color="237,199,255" fill="1" id="178706093" layer="-1.00" shape="97.60,371.28 110.60,373.68 111.88,366.82 98.87,364.42 97.60,371.28" type="shop"/>
   <poly color="red" fill="1" id="179369820" layer="-1.00" shape="3.81,577.01" type="building"/>
   <poly color="235,235,227" fill="1" id="184721731" layer="-3.00" shape="466.34,810.88 579.85,842.49 587.90,844.27 596.81,844.32 603.33,840.93 608.59,836.45 612.11,830.44 626.03,778.33 641.27,705.00 641.92,702.41 659.26,633.18 661.87,613.17 659.87,598.90 526.26,558.05 483.59,546.44 472.62,547.94 449.85,638.40 409.24,785.09 406.50,795.04 436.07,802.25 447.56,805.48 452.45,806.49 456.74,807.61 466.34,810.88" type="residential"/>
   <poly color="235,235,227" fill="0" id="184732286" layer="-3.00" shape="848.82,678.77 796.70,628.82 747.73,596.16 687.89,554.56 668.64,538.23 641.11,516.06 597.17,481.82 555.26,452.70 527.30,436.67 530.25,431.75 614.50,286.24 595.86,276.19 591.94,274.16 605.56,252.13 617.00,237.56 743.38,309.86 753.18,309.93 778.67,326.61 797.69,336.30 824.94,345.21 860.17,355.09" type="residential"/>
   <poly color="235,235,227" fill="0" id="185447923" layer="-3.00" shape="436.32,850.24 449.85,810.82 615.28,866.62 774.31,815.80 818.89,827.60" type="residential"/>
   <poly color="209,209,204" fill="0" id="185956971" layer="-3.00" shape="15.65,813.14 90.73,832.70 100.33,834.72" type="commercial"/>
   <poly color="207,245,201" fill="1" id="185983467" layer="-2.00" shape="316.16,855.15 318.79,842.10 325.04,811.02 299.43,804.05 342.08,647.58 357.93,588.11 406.59,400.70 463.22,414.30 450.87,459.11 408.28,449.13 375.89,575.72 433.31,589.98 436.08,590.64 422.52,600.17 416.47,601.71 391.27,630.74 384.07,635.77 404.23,665.45 420.23,670.22 449.85,638.40 409.24,785.09 406.50,795.04 404.58,801.86 445.72,812.71 436.32,850.24 435.35,854.12 316.16,855.15" type="tourism"/>
   <poly color="194,194,130" fill="1" id="186107435" layer="-3.00" shape="375.60,575.72 436.19,590.30 451.81,536.74 431.58,531.11 450.87,459.11 408.28,449.13 375.60,575.72" type="landuse"/>
   <poly color="194,194,130" fill="1" id="186107436" layer="-3.00" shape="431.69,530.99 661.24,598.27 667.77,600.36 687.89,554.56 592.51,480.26 554.24,453.62 527.30,436.67 463.22,414.30 450.87,459.11 431.69,530.99" type="landuse"/>
   <poly color="194,194,130" fill="1" id="186109695" layer="-3.00" shape="687.84,558.79 748.95,601.16 784.53,647.07 684.21,679.36 656.99,785.51 626.03,778.33 641.92,702.41 659.26,633.18 661.87,613.17 675.56,583.34 687.84,558.79" type="landuse"/>
   <poly color="237,199,199" fill="1" id="186739265" layer="-1.00" shape="472.55,148.07 482.07,108.86 497.47,112.58 487.95,151.80 472.55,148.07" type="amenity"/>
   <poly color="red" fill="1" id="186739265#1" layer="-1.00" shape="472.55,148.07 482.07,108.86 497.47,112.58 487.95,151.80 472.55,148.07" type="building"/>
   <poly color="128,255,128" fill="1" id="186739265#2" layer="-1.00" shape="472.55,148.07 482.07,108.86 497.47,112.58 487.95,151.80 472.55,148.07" type="historic"/>
   <poly color="red" fill="1" id="186739278" layer="-1.00" shape="474.20,88.86 476.40,79.79 501.64,85.88 499.44,94.96 474.20,88.86" type="building"/>
   <poly color="red" fill="1" id="186739281" layer="-1.00" shape="466.21,183.24 468.61,173.49 491.85,179.19 489.45,188.94 466.21,183.24" type="building"/>
   <poly color="red" fill="1" id="186739317" layer="-1.00" shape="455.88,304.98 455.84,302.82 456.97,300.10 458.54,298.62 461.29,297.62 463.45,297.75 465.43,298.61 466.52,299.52 467.71,301.33 468.20,303.43 468.09,305.04 467.29,307.05 465.85,308.66 464.34,309.55 462.23,310.00 460.36,309.78 458.40,308.87 456.87,307.33 455.88,304.98" type="building"/>
   <poly color="237,199,199" fill="0" id="186739667" layer="-1.00" shape="487.51,16.57 485.27,21.28 493.78,25.30 495.10,22.53 497.55,22.99 501.58,22.05 503.74,17.96" type="amenity"/>
   <poly color="red" fill="0" id="186739667#1" layer="-1.00" shape="487.51,16.57 485.27,21.28 493.78,25.30 495.10,22.53 497.55,22.99 501.58,22.05 503.74,17.96" type="building"/>
   <poly color="235,235,227" fill="1" id="188707255" layer="-3.00" shape="137.17,793.85 130.13,785.67 137.83,760.93 163.26,767.98 236.51,787.44 324.92,811.06 318.79,842.10 298.16,837.66 137.17,793.85" type="residential"/>
   <poly color="235,235,227" fill="1" id="189479082" layer="-3.00" shape="138.44,760.05 140.91,760.72 199.74,776.63 248.24,789.43 299.04,803.10 303.39,790.23 351.79,607.49 190.71,569.85 138.44,760.05" type="residential"/>
   <poly color="235,235,227" fill="1" id="189479156" layer="-3.00" shape="21.88,546.12 28.95,493.87 31.48,494.18 194.45,513.31 182.61,568.76 23.43,546.34 21.88,546.12" type="residential"/>
   <poly color="red" fill="1" id="190823594" layer="-1.00" shape="315.76,17.94 327.32,18.92 315.76,17.94" type="building"/>
   <poly color="red" fill="1" id="190823597" layer="-1.00" shape="230.82,89.83 237.49,17.90 242.43,18.28 249.42,19.00 242.75,90.93 230.82,89.83" type="building"/>
   <poly color="red" fill="1" id="190823601" layer="-1.00" shape="368.10,51.38 382.41,52.63 368.10,51.38" type="building"/>
   <poly color="red" fill="1" id="190823617" layer="-1.00" shape="231.05,17.41 242.43,18.28 237.49,17.90 231.05,17.41" type="building"/>
   <poly color="red" fill="1" id="190823622" layer="-1.00" shape="303.21,74.09 307.06,24.12 320.59,25.17 316.74,75.14 303.21,74.09" type="building"/>
   <poly color="red" fill="1" id="195186084" layer="-1.00" shape="291.53,121.25 299.31,119.36 302.66,132.98 294.87,134.88 292.99,127.24 291.53,121.25" type="building"/>
   <poly color="red" fill="1" id="195186085" layer="-1.00" shape="783.53,224.99 790.78,212.55 806.53,221.70 799.27,234.14 783.53,224.99" type="building"/>
   <poly color="red" fill="1" id="195186086" layer="-1.00" shape="380.41,100.19 377.36,92.66 398.45,84.14 401.51,91.68 380.41,100.19" type="building"/>
   <poly color="red" fill="1" id="195186087" layer="-1.00" shape="476.92,66.24 479.15,55.45 488.69,57.42 486.46,68.20 476.92,66.24" type="building"/>
   <poly color="red" fill="1" id="195186088" layer="-1.00" shape="326.97,142.62 324.51,133.04 340.73,128.90 343.20,138.46 326.97,142.62" type="building"/>
   <poly color="red" fill="1" id="195186089" layer="-1.00" shape="368.74,119.51 369.64,123.26 369.93,124.43 371.48,124.05 372.26,127.22 387.31,123.54 386.15,118.84 385.31,115.54 384.22,115.81 368.74,119.51" type="building"/>
   <poly color="red" fill="1" id="195186090" layer="-1.00" shape="806.16,239.31 813.20,227.41 828.76,236.58 821.72,248.47 806.16,239.31" type="building"/>
   <poly color="red" fill="1" id="195186091" layer="-1.00" shape="192.96,185.00 186.29,179.66 200.26,162.27 206.94,167.61 192.96,185.00" type="building"/>
   <poly color="red" fill="1" id="195186092" layer="-1.00" shape="751.28,204.03 759.72,190.89 783.10,205.83 774.67,218.97 751.28,204.03" type="building"/>
   <poly color="red" fill="1" id="195186094" layer="-1.00" shape="349.76,160.72 348.74,153.12 362.54,151.30 363.55,158.90 349.76,160.72" type="building"/>
   <poly color="red" fill="1" id="195186095" layer="-1.00" shape="349.99,112.52 346.67,104.75 368.02,95.68 371.34,103.46 349.99,112.52" type="building"/>
   <poly color="red" fill="1" id="195186097" layer="-1.00" shape="867.88,300.90" type="building"/>
   <poly color="red" fill="1" id="195186100" layer="-1.00" shape="462.10,34.38 463.03,24.00 478.65,25.41 477.71,35.79 462.10,34.38" type="building"/>
   <poly color="red" fill="1" id="195186102" layer="-1.00" shape="495.11,64.71 497.23,54.12 507.74,56.21 505.61,66.80 495.11,64.71" type="building"/>
   <poly color="red" fill="1" id="195186103" layer="-1.00" shape="856.67,260.50 861.51,250.39 868.96,266.36 856.67,260.50" type="building"/>
   <poly color="red" fill="1" id="195186104" layer="-1.00" shape="358.29,135.13 356.22,126.46 369.64,123.26 369.93,124.43 371.48,124.05 372.26,127.22 373.22,131.56 358.29,135.13" type="building"/>
   <poly color="red" fill="1" id="195186109" layer="-1.00" shape="258.91,148.23 255.62,137.57 264.73,134.77 268.03,145.44 258.91,148.23" type="building"/>
   <poly color="red" fill="1" id="195186111" layer="-1.00" shape="373.85,160.36 373.69,148.88 384.12,148.74 384.29,160.21 373.85,160.36" type="building"/>
   <poly color="red" fill="1" id="195186113" layer="-1.00" shape="521.81,125.48 524.76,115.59 570.63,129.24 567.67,139.13 521.81,125.48" type="building"/>
   <poly color="red" fill="1" id="195186114" layer="-1.00" shape="323.09,123.16 320.32,113.42 333.42,109.72 336.20,119.47 323.09,123.16" type="building"/>
   <poly color="red" fill="1" id="195186116" layer="-1.00" shape="315.68,112.60 317.97,120.96 301.85,125.35 299.56,116.99 315.68,112.60" type="building"/>
   <poly color="237,199,199" fill="1" id="196371164" layer="-1.00" shape="83.64,155.25 72.40,153.37 74.31,142.20 104.44,147.34 102.52,158.51 96.61,157.55 83.64,155.25" type="amenity"/>
   <poly color="red" fill="1" id="196371164#1" layer="-1.00" shape="83.64,155.25 72.40,153.37 74.31,142.20 104.44,147.34 102.52,158.51 96.61,157.55 83.64,155.25" type="building"/>
   <poly color="194,194,130" fill="0" id="196371165" layer="-3.00" shape="36.11,60.78 38.95,61.26 40.20,61.46 43.93,62.07 52.26,63.42 62.50,65.04 71.40,66.44 81.82,68.09 90.90,69.93 101.16,71.64 109.73,73.07 120.54,74.77 128.91,76.46 139.12,78.00 149.03,79.84 144.93,104.02 175.11,109.13 165.81,163.95 134.52,160.82 136.43,143.67 131.46,142.97 69.85,129.49 62.15,174.87" type="landuse"/>
   <poly color="184,184,179" fill="1" id="196371167" layer="-1.00" shape="67.40,195.65 113.93,204.92 112.85,210.29 66.32,201.00 67.40,195.65" type="parking"/>
   <poly color="184,184,179" fill="1" id="196371884" layer="-1.00" shape="48.59,0.29 169.07,10.44 48.59,0.29" type="parking"/>
   <poly color="red" fill="1" id="196371884#1" layer="-1.00" shape="48.59,0.29 169.07,10.44 48.59,0.29" type="building"/>
   <poly color="red" fill="0" id="196373355" layer="-1.00" shape="16.49,315.73 20.35,290.34 15.95,289.67 19.80,264.36" type="building"/>
   <poly color="237,199,199" fill="1" id="199664169" layer="-1.00" shape="307.65,323.01 333.92,329.24 349.71,332.98 395.23,343.76 403.58,312.34 427.18,319.00 437.66,281.09 440.69,270.42 317.14,234.84 309.42,260.58 324.55,264.29 307.65,323.01" type="amenity"/>
   <poly color="207,245,201" fill="1" id="199664170" layer="-2.00" shape="446.77,323.74 473.79,328.96 487.72,269.94 505.79,275.26 533.50,207.41 609.13,237.96 615.93,226.33 611.88,221.33 598.32,209.76 513.62,182.05 498.13,177.71 522.27,115.18 417.21,83.68 401.39,124.48 381.05,138.79 391.59,164.51 365.93,180.98 343.69,177.48 327.50,181.02 324.20,181.80 316.59,183.47 301.08,189.17 285.32,209.88 287.37,242.95 309.42,260.58 317.14,234.84 440.69,270.42 437.66,281.09 427.18,319.00 446.77,323.74" type="tourism"/>
   <poly color="237,199,199" fill="1" id="199664171" layer="-1.00" shape="609.13,237.96 533.50,207.41 505.79,275.26 487.72,269.94 473.79,328.96 473.56,337.13 484.81,340.38 480.73,360.95 476.56,378.60 533.95,405.81 541.81,409.53 599.65,297.50 581.45,286.11 609.13,237.96" type="amenity"/>
   <poly color="194,194,130" fill="1" id="199664172" layer="-3.00" shape="615.99,224.84 645.37,152.72 522.27,115.18 498.13,177.71 598.32,209.76 611.88,221.33 615.99,224.84" type="landuse"/>
   <poly color="194,194,130" fill="1" id="199665504" layer="-3.00" shape="607.86,254.07 618.73,235.03 628.99,238.69 630.22,220.09 649.58,167.18 657.53,163.60 667.45,167.57 785.63,245.92 743.38,309.86 758.83,320.23 768.09,303.80 762.89,300.45 789.08,254.84 798.54,251.71 832.31,270.96 823.46,288.60 800.27,369.37 799.81,372.13 795.09,371.44 795.97,369.98 680.67,301.20 679.39,303.33 675.19,300.80 678.41,295.34 607.86,254.07" type="landuse"/>
   <poly color="184,184,179" fill="1" id="199665505" layer="-1.00" shape="430.87,362.17 436.32,342.48 464.35,348.75 481.05,352.60 483.56,341.35 472.57,338.50 473.79,328.96 446.77,323.74 427.18,319.00 423.83,333.01 430.12,334.24 423.47,360.52 430.87,362.17" type="parking"/>
   <poly color="235,235,227" fill="1" id="199665506" layer="-3.00" shape="744.28,207.29 764.80,179.22 847.54,227.93 857.08,306.32 862.69,296.64 823.46,288.60 832.31,270.96 836.80,263.23 744.28,207.29" type="residential"/>
   <poly color="194,194,130" fill="0" id="199665507" layer="-3.00" shape="22.96,194.06 32.64,203.50 39.21,235.63 61.32,241.86 87.45,241.41 100.63,238.59 125.93,240.59 144.81,225.71 158.42,221.05 178.46,213.79 255.60,244.28 248.73,274.72 214.66,254.67 191.45,247.67 149.57,237.10 146.38,261.30 173.84,271.00 169.89,301.00 240.50,311.96 243.34,298.61 286.20,309.50 291.77,272.89 294.51,260.35 314.00,266.71 302.02,324.28 328.88,333.16 326.30,341.62 147.94,315.13 37.07,298.43 37.48,287.79 48.73,286.61 50.67,265.61 31.61,257.66" type="landuse"/>
   <poly color="207,245,201" fill="1" id="199665508" layer="-2.00" shape="524.11,423.19 533.95,405.81 476.56,378.60 480.73,360.95 464.35,348.75 436.32,342.48 430.87,362.17 423.09,393.24 455.14,403.46 457.16,391.21 524.11,423.19" type="tourism"/>
   <poly color="207,245,201" fill="1" id="199665510" layer="-2.00" shape="328.84,371.46 392.38,387.04 394.15,370.74 349.71,332.98 333.92,329.24 328.84,371.46" type="tourism"/>
   <poly color="184,184,179" fill="1" id="201175053" layer="-1.00" shape="41.16,1.45" type="parking"/>
   <poly color="184,184,179" fill="1" id="202535552" layer="-1.00" shape="843.97,283.81 859.61,291.70 864.46,282.13 848.83,274.24 843.97,283.81" type="parking"/>
   <poly color="140,196,107" fill="1" id="203935774" layer="-4.00" shape="43.73,19.27 36.11,60.78 43.73,19.27" type="forest"/>
   <poly color="209,209,204" fill="1" id="203935865" layer="-3.00" shape="41.09,57.48 46.04,17.50 164.15,30.77 161.73,53.75 203.64,60.02 194.83,112.38 175.11,109.13 144.93,104.02 149.03,79.84 139.12,78.00 128.91,76.46 120.54,74.77 109.73,73.07 101.16,71.64 90.90,69.93 81.82,68.09 71.40,66.44 62.50,65.04 52.26,63.42 43.93,62.07 40.20,61.46 41.09,57.48" type="commercial"/>
   <poly color="207,245,201" fill="1" id="203936066" layer="-2.00" shape="238.05,781.40 201.29,772.10 236.51,642.84 258.94,648.50 259.71,645.45 269.36,647.88 270.85,641.98 276.31,643.46 272.52,659.60 261.25,656.62 258.33,667.60 257.37,667.34 255.35,674.95 256.32,675.20 254.51,682.02 253.54,681.77 251.78,688.43 252.74,688.68 250.90,695.65 249.93,695.40 247.89,703.07 248.85,703.32 247.22,709.48 246.26,709.22 244.17,717.10 245.12,717.35 243.45,723.66 242.48,723.41 240.50,730.89 241.45,731.14 239.76,737.56 238.79,737.30 236.71,745.17 237.66,745.42 236.16,751.10 235.20,750.85 232.90,759.51 233.86,759.76 231.29,769.45 242.58,772.43 241.45,778.76 238.05,781.40" type="tourism"/>
   <poly color="194,194,130" fill="1" id="203936067" layer="-3.00" shape="132.27,750.50 130.95,755.68 134.36,755.22 136.93,753.35 141.63,734.46 139.80,730.90 48.92,706.21 45.34,708.39 41.37,724.83 45.62,730.80 46.28,728.19 76.59,735.92 75.18,741.40 79.88,742.67 81.21,737.47 132.27,750.50" type="landuse"/>
   <poly color="194,194,130" fill="1" id="203936068" layer="-3.00" shape="28.56,541.43 98.14,550.54 179.60,561.04 182.28,552.73 44.83,532.01 46.34,522.01 130.57,534.69 132.98,511.19 34.67,500.56 28.56,541.43" type="landuse"/>
   <poly color="207,245,201" fill="1" id="203936069" layer="-2.00" shape="255.48,778.95 251.24,777.91 250.49,782.55 252.50,785.38 256.44,786.63 257.56,782.36 286.60,789.94 285.48,794.21 292.07,792.68 298.14,789.18 294.51,788.20 295.26,786.16 282.30,782.84 315.21,654.79 309.14,653.11 308.09,657.40 293.28,653.78 294.85,647.42 283.53,646.25 258.87,746.87 263.12,747.91 255.48,778.95" type="tourism"/>
   <poly color="207,245,201" fill="1" id="203936070" layer="-2.00" shape="35.65,557.69 164.15,574.38 130.14,703.17 55.17,685.34 62.98,657.89 43.76,653.63 53.11,578.26 52.89,574.37 34.36,571.41 35.65,557.69" type="tourism"/>
   <poly color="207,245,201" fill="1" id="203936071" layer="-2.00" shape="183.34,768.12 189.62,767.04 193.19,761.92 227.23,635.57 227.71,632.65 225.66,630.08 221.51,628.87 220.09,634.03 188.16,625.27 189.58,620.11 183.75,620.00 180.41,622.41 146.07,753.74 147.29,757.90 151.58,760.03 152.75,755.45 184.51,763.54 183.34,768.12" type="tourism"/>
   <poly color="194,194,130" fill="1" id="220707324" layer="-3.00" shape="248.71,99.23 288.70,88.18 335.11,28.31 327.85,28.10 325.17,71.82 359.85,62.78 366.32,56.33 252.04,16.06 258.00,20.84 248.71,99.23" type="landuse"/>
   <poly color="140,196,107" fill="1" id="222539639" layer="-4.00" shape="48.72,225.96 58.66,231.88 68.31,233.01 85.04,232.05 100.43,229.50 113.90,223.91 121.89,215.29 78.06,205.92 42.04,201.68 44.46,215.73 48.72,225.96" type="natural"/>
   <poly color="140,196,107" fill="0" id="222568836" layer="-4.00" shape="414.05,34.55 417.45,45.17 428.16,45.54 425.24,41.57 436.37,33.83 439.23,39.47 460.14,41.11 453.51,34.33 454.21,21.52" type="natural"/>
   <poly color="red" fill="1" id="233943398" layer="-1.00" shape="97.06,771.10 100.05,759.50 97.06,771.10" type="building"/>