<?xml version="1.0" encoding="utf-8"?><!-- generated on 10/11/17 17:53:46 by SUMO polyconvert Version 0.25.0
<?xml version="1.0" encoding="UTF-8"?>

<configuration xmlns:xsi="http://www.w3.org/2001/XMLSchema-instance" xsi:noNamespaceSchemaLocation="http://sumo.dlr.de/xsd/polyconvertConfiguration.xsd">

    <input>
        <net-file value="HD_Pfaffengr_urban_800.net.xml"/>
        <osm-files value="HD_Pfaffengr_urban_800.osm"/>
        <type-file value="osmPolyconvert.typ.xml"/>
    </input>

    <output>
        <output-file value="HD_Pfaffengr_urban_800.poly.xml"/>
    </output>

    <projection>
        <proj.utm value="true"/>
    </projection>

    <processing>
        <poi-layer-offset value="5"/>
    </processing>

</configuration>
-->
<additional>
   <location convBoundary="-5.11,-4.33,817.09,809.57" netOffset="-473795.53,-5471365.14" origBoundary="8.638800,49.394403,8.650097,49.401699" projParameter="+proj=utm +zone=32 +ellps=WGS84 +datum=WGS84 +units=m +no_defs"/>
   <poly color="237,199,199" fill="1" id="127444720" layer="-1.00" shape="701.62,734.28 704.86,716.75 711.82,718.03 711.54,719.58 728.89,722.80 729.29,720.62 735.89,721.84 732.84,738.30 727.55,737.32 727.24,739.02 701.62,734.28" type="amenity"/>
   <poly color="red" fill="1" id="127444720#1" layer="-1.00" shape="701.62,734.28 704.86,716.75 711.82,718.03 711.54,719.58 728.89,722.80 729.29,720.62 735.89,721.84 732.84,738.30 727.55,737.32 727.24,739.02 701.62,734.28" type="building"/>
   <poly color="207,245,201" fill="1" id="127444723" layer="-2.00" shape="714.41,709.42 717.30,694.75 719.21,693.28 720.36,686.63 722.35,683.55 725.43,681.25 729.08,680.97 733.39,681.31 756.10,686.65 812.64,697.80 807.71,722.12 756.49,712.16 755.27,716.94 714.41,709.42" type="leisure"/>
   <poly color="red" fill="1" id="127444725" layer="-1.00" shape="586.45,724.70 587.71,718.32 580.94,717.00 580.32,720.13 572.92,718.68 572.28,721.92 586.45,724.70" type="building"/>
   <poly color="red" fill="1" id="127444729" layer="-1.00" shape="631.10,710.79 630.19,715.50 610.90,711.79 611.26,709.96 621.65,711.97 622.21,709.08 631.10,710.79" type="building"/>
   <poly color="237,199,199" fill="1" id="127444733" layer="-1.00" shape="763.77,707.73 766.54,693.42 768.93,693.82 770.24,693.25 771.51,691.80 771.79,689.97 783.64,692.25 779.26,715.36 767.66,713.12 767.66,711.40 766.97,709.67 765.76,708.59 763.77,707.73" type="amenity"/>
   <poly color="red" fill="1" id="127444733#1" layer="-1.00" shape="763.77,707.73 766.54,693.42 768.93,693.82 770.24,693.25 771.51,691.80 771.79,689.97 783.64,692.25 779.26,715.36 767.66,713.12 767.66,711.40 766.97,709.67 765.76,708.59 763.77,707.73" type="building"/>
   <poly color="red" fill="1" id="127444737" layer="-1.00" shape="623.63,701.78 624.21,698.52 613.71,696.64 614.09,694.47 620.14,695.55 633.42,697.92 632.45,703.35 623.63,701.78" type="building"/>
   <poly color="red" fill="1" id="127444739" layer="-1.00" shape="790.44,746.05 791.01,743.06 796.96,744.19 797.56,741.08 801.49,741.83 801.17,743.49 810.89,745.34 810.04,749.78 790.44,746.05" type="building"/>
   <poly color="red" fill="1" id="127444743" layer="-1.00" shape="558.02,725.92 553.28,725.04 556.74,706.46 559.03,706.88 557.25,716.50 559.69,716.94 558.02,725.92" type="building"/>
   <poly color="red" fill="1" id="127444744" layer="-1.00" shape="757.43,764.12 759.16,755.41 745.76,752.75 744.03,761.46 757.43,764.12" type="building"/>
   <poly color="red" fill="1" id="127444746" layer="-1.00" shape="646.11,706.03 647.09,700.64 666.94,704.25 666.49,706.75 655.58,704.76 655.05,707.66 646.11,706.03" type="building"/>
   <poly color="red" fill="1" id="127444749" layer="-1.00" shape="629.74,669.22 630.30,666.23 625.79,665.40 626.24,662.95 639.69,665.41 638.69,670.86 629.74,669.22" type="building"/>
   <poly color="red" fill="1" id="127444752" layer="-1.00" shape="639.21,741.74 640.11,737.00 654.69,739.75 658.72,740.51 658.28,742.84 648.54,741.01 648.09,743.41 639.21,741.74" type="building"/>
   <poly color="red" fill="1" id="127444757" layer="-1.00" shape="588.75,674.21 585.57,690.74 582.42,690.13 583.98,682.01 581.65,681.55 583.27,673.16 588.75,674.21" type="building"/>
   <poly color="red" fill="1" id="127444759" layer="-1.00" shape="575.07,687.57 572.14,687.02 573.50,679.92 570.97,679.43 572.57,671.11 578.04,672.16 575.07,687.57" type="building"/>
   <poly color="red" fill="1" id="127444762" layer="-1.00" shape="567.33,670.11 564.35,685.62 563.35,690.83 560.54,690.29 560.72,689.33 559.30,689.06 559.86,686.12 561.29,686.39 562.89,678.07 559.97,677.51 561.61,669.01 567.33,670.11" type="building"/>
   <poly color="red" fill="1" id="127580619" layer="-1.00" shape="73.87,654.79 83.33,656.60 85.14,647.19 75.67,645.38 73.87,654.79" type="building"/>
   <poly color="red" fill="1" id="127580621" layer="-1.00" shape="165.74,801.75 167.01,794.93 160.71,793.76 160.56,794.55 155.56,793.61 155.81,792.27 140.69,789.46 139.32,796.84 165.74,801.75" type="building"/>
   <poly color="red" fill="1" id="127580623" layer="-1.00" shape="77.75,770.27 79.93,759.16 88.60,760.87 86.42,771.97 77.75,770.27" type="building"/>
   <poly color="red" fill="1" id="127580624" layer="-1.00" shape="8.96,705.14 10.66,695.56 20.26,697.26 18.57,706.84 8.96,705.14" type="building"/>
   <poly color="red" fill="1" id="127580625" layer="-1.00" shape="124.90,668.91 137.80,671.49 140.02,660.47 127.12,657.87 124.90,668.91" type="building"/>
   <poly color="red" fill="1" id="127580626" layer="-1.00" shape="117.04,710.40 119.13,698.45 132.73,700.84 130.64,712.79 117.04,710.40" type="building"/>
   <poly color="red" fill="1" id="127580628" layer="-1.00" shape="0.22,693.71 2.13,684.15 0.22,693.71" type="building"/>
   <poly color="red" fill="1" id="127580629" layer="-1.00" shape="29.24,721.40 27.29,730.96 35.34,732.60 37.28,723.04 29.24,721.40" type="building"/>
   <poly color="red" fill="1" id="127580630" layer="-1.00" shape="44.15,702.27 53.76,704.15 55.69,694.20 46.09,692.32 44.15,702.27" type="building"/>
   <poly color="red" fill="1" id="127580631" layer="-1.00" shape="72.05,664.31 73.87,654.79 83.33,656.60 81.50,666.13 72.05,664.31" type="building"/>
   <poly color="red" fill="1" id="127580636" layer="-1.00" shape="111.32,745.10 114.46,728.75 125.18,730.94 123.17,742.43 119.73,741.83 118.93,746.43 111.32,745.10" type="building"/>
   <poly color="red" fill="1" id="127580637" layer="-1.00" shape="59.21,747.72 60.94,738.23 70.47,739.95 68.73,749.46 59.21,747.72" type="building"/>
   <poly color="red" fill="1" id="127580638" layer="-1.00" shape="64.14,704.49 73.76,706.43 75.67,696.95 66.05,695.01 64.14,704.49" type="building"/>
   <poly color="red" fill="1" id="127580639" layer="-1.00" shape="-1.67,703.18 0.22,693.71 -1.67,703.18" type="building"/>
   <poly color="red" fill="1" id="127580640" layer="-1.00" shape="119.13,698.45 132.73,700.84 134.71,689.52 121.11,687.14 119.13,698.45" type="building"/>
   <poly color="red" fill="0" id="127580641" layer="-1.00" shape="4.89,669.06 6.59,659.20" type="building"/>
   <poly color="red" fill="1" id="127580642" layer="-1.00" shape="9.66,644.20 0.56,642.41 2.46,632.74 11.56,634.53 9.66,644.20" type="building"/>
   <poly color="red" fill="1" id="127580643" layer="-1.00" shape="47.23,686.68 49.06,677.41 58.50,679.28 56.66,688.56 47.23,686.68" type="building"/>
   <poly color="red" fill="1" id="127580644" layer="-1.00" shape="11.64,717.82 9.69,727.37 18.38,729.14 20.32,719.58 11.64,717.82" type="building"/>
   <poly color="red" fill="1" id="127580645" layer="-1.00" shape="2.19,715.89 11.64,717.82 9.69,727.37 0.24,725.45 2.19,715.89" type="building"/>
   <poly color="red" fill="1" id="127580646" layer="-1.00" shape="18.73,655.22 20.47,646.41 29.99,648.28 28.26,657.10 18.73,655.22" type="building"/>
   <poly color="red" fill="1" id="127580648" layer="-1.00" shape="117.03,791.01 102.94,788.33 103.77,783.99 105.15,776.78 119.24,779.46 117.03,791.01" type="building"/>
   <poly color="red" fill="1" id="127580649" layer="-1.00" shape="72.06,731.31 62.54,729.54 64.30,720.31 76.44,722.65 75.12,729.48 72.47,728.97 72.06,731.31" type="building"/>
   <poly color="red" fill="1" id="127580650" layer="-1.00" shape="122.67,680.00 124.90,668.91 137.80,671.49 135.58,682.59 122.67,680.00" type="building"/>
   <poly color="red" fill="1" id="127580652" layer="-1.00" shape="68.97,679.75 78.54,681.55 80.33,672.00 70.76,670.20 68.97,679.75" type="building"/>
   <poly color="red" fill="1" id="127580653" layer="-1.00" shape="62.22,713.97 64.14,704.49 73.76,706.43 71.84,715.92 62.22,713.97" type="building"/>
   <poly color="red" fill="1" id="127580654" layer="-1.00" shape="54.06,652.53 63.32,654.31 65.14,644.86 55.88,643.07 54.06,652.53" type="building"/>
   <poly color="red" fill="1" id="127580656" layer="-1.00" shape="17.38,661.49 15.65,670.73 25.43,672.56 27.16,663.33 17.38,661.49" type="building"/>
   <poly color="red" fill="1" id="127580657" layer="-1.00" shape="35.34,732.60 37.28,723.04 45.80,724.77 43.85,734.32 35.34,732.60" type="building"/>
   <poly color="red" fill="1" id="127580658" layer="-1.00" shape="7.85,653.44 9.66,644.20 0.56,642.41 -1.25,651.65 7.85,653.44" type="building"/>
   <poly color="red" fill="1" id="127580660" layer="-1.00" shape="54.45,769.68 56.34,760.41 65.52,762.28 63.64,771.55 54.45,769.68" type="building"/>
   <poly color="red" fill="1" id="127580662" layer="-1.00" shape="10.66,695.56 20.26,697.26 21.90,688.00 12.29,686.30 10.66,695.56" type="building"/>
   <poly color="red" fill="1" id="127580663" layer="-1.00" shape="56.34,760.41 65.52,762.28 67.46,752.77 58.28,750.90 56.34,760.41" type="building"/>
   <poly color="red" fill="1" id="127580664" layer="-1.00" shape="20.47,646.41 29.99,648.28 31.94,638.40 22.41,636.52 20.47,646.41" type="building"/>
   <poly color="red" fill="1" id="127580665" layer="-1.00" shape="67.18,689.27 68.97,679.75 78.54,681.55 76.75,691.07 67.18,689.27" type="building"/>
   <poly color="red" fill="0" id="127580666" layer="-1.00" shape="4.89,669.06 3.35,678.01" type="building"/>
   <poly color="red" fill="1" id="127580667" layer="-1.00" shape="18.38,729.14 20.32,719.58 29.24,721.40 27.29,730.96 18.38,729.14" type="building"/>
   <poly color="red" fill="1" id="127580670" layer="-1.00" shape="60.94,738.23 70.47,739.95 72.06,731.31 62.54,729.54 60.94,738.23" type="building"/>
   <poly color="red" fill="1" id="127580671" layer="-1.00" shape="52.24,661.94 54.06,652.53 63.32,654.31 61.51,663.72 52.24,661.94" type="building"/>
   <poly color="red" fill="1" id="127580672" layer="-1.00" shape="103.65,770.60 105.93,759.05 118.17,761.45 115.89,773.01 103.65,770.60" type="building"/>
   <poly color="red" fill="1" id="127580673" layer="-1.00" shape="42.41,711.22 44.15,702.27 53.76,704.15 52.02,713.08 42.41,711.22" type="building"/>
   <poly color="red" fill="1" id="127580674" layer="-1.00" shape="114.46,728.75 125.18,730.94 126.85,731.28 128.87,721.44 126.84,721.03 127.74,716.70 119.88,715.09 118.88,719.97 116.37,719.46 114.46,728.75" type="building"/>
   <poly color="red" fill="1" id="127580675" layer="-1.00" shape="105.93,759.05 118.17,761.45 120.58,761.93 122.69,751.23 110.62,748.86 108.51,759.55 105.93,759.05" type="building"/>
   <poly color="red" fill="1" id="127580676" layer="-1.00" shape="15.65,670.73 25.43,672.56 24.79,675.94 27.99,676.53 26.82,682.74 13.85,680.30 15.65,670.73" type="building"/>
   <poly color="red" fill="1" id="127580677" layer="-1.00" shape="45.80,724.77 43.85,734.32 47.67,735.10 46.93,738.77 52.68,739.94 55.36,726.72 45.80,724.77" type="building"/>
   <poly color="red" fill="1" id="127580678" layer="-1.00" shape="49.06,677.41 58.50,679.28 60.46,669.37 45.80,666.47 44.55,672.81 49.77,673.85 49.06,677.41" type="building"/>
   <poly color="140,196,107" fill="1" id="130530843" layer="-4.00" shape="809.35,40.08 788.83,20.38 777.70,13.44 774.96,11.52 809.35,40.08" type="natural"/>
   <poly color="140,196,107" fill="1" id="130531243" layer="-4.00" shape="766.95,2.63 766.02,11.75 756.29,13.93 736.57,0.25 760.30,-4.33 766.95,2.63" type="natural"/>
   <poly color="red" fill="1" id="135700121" layer="-1.00" shape="464.02,406.21 476.14,408.40 479.72,388.64 467.61,386.45 464.02,406.21" type="building"/>
   <poly color="red" fill="1" id="135700123" layer="-1.00" shape="302.82,334.04 299.03,354.30 310.72,356.48 314.52,336.22 302.82,334.04" type="building"/>
   <poly color="red" fill="1" id="135700127" layer="-1.00" shape="309.72,255.11 319.22,256.81 321.44,244.39 311.86,242.74 309.72,255.11" type="building"/>
   <poly color="red" fill="1" id="135700131" layer="-1.00" shape="360.45,282.77 370.94,284.86 372.77,275.66 362.28,273.59 360.45,282.77" type="building"/>
   <poly color="red" fill="1" id="135700133" layer="-1.00" shape="346.70,249.24 344.26,262.29 354.80,264.18 357.11,251.17 346.70,249.24" type="building"/>
   <poly color="red" fill="1" id="135700139" layer="-1.00" shape="342.22,279.72 351.21,281.22 352.74,272.12 343.75,270.62 342.22,279.72" type="building"/>
   <poly color="red" fill="1" id="135700142" layer="-1.00" shape="508.32,384.69 520.66,386.90 522.42,377.13 510.08,374.92 508.32,384.69" type="building"/>
   <poly color="red" fill="1" id="135700148" layer="-1.00" shape="483.14,408.84 500.37,412.18 502.02,403.69 484.79,400.34 483.14,408.84" type="building"/>
   <poly color="red" fill="1" id="135700150" layer="-1.00" shape="334.80,260.53 344.26,262.29 346.70,249.24 337.24,247.48 334.80,260.53" type="building"/>
   <poly color="red" fill="1" id="135700151" layer="-1.00" shape="284.79,301.94 287.64,302.48 289.38,293.37 293.10,294.08 294.57,286.42 288.01,285.17 284.79,301.94" type="building"/>
   <poly color="red" fill="1" id="135700152" layer="-1.00" shape="332.97,278.12 342.22,279.72 343.75,270.62 334.65,269.00 332.97,278.12" type="building"/>
   <poly color="red" fill="1" id="135700154" layer="-1.00" shape="364.88,260.92 375.08,262.81 377.50,249.84 367.30,247.94 364.88,260.92" type="building"/>
   <poly color="red" fill="1" id="135700155" layer="-1.00" shape="268.83,344.97 277.60,346.63 278.50,341.95 280.57,342.34 279.72,346.76 292.43,349.16 293.41,344.05 294.37,344.23 295.32,339.21 294.16,338.99 295.30,333.00 295.25,333.25 279.30,330.23 279.98,326.68 276.38,325.99 275.72,329.46 271.93,328.74 271.99,328.43 268.83,344.97" type="building"/>
   <poly color="red" fill="1" id="135700156" layer="-1.00" shape="317.83,264.74 316.15,275.05 324.97,276.38 326.14,265.85 317.83,264.74" type="building"/>
   <poly color="red" fill="1" id="135700157" layer="-1.00" shape="310.56,379.07 317.94,380.41 319.80,370.09 312.41,368.77 310.56,379.07" type="building"/>
   <poly color="red" fill="1" id="135700158" layer="-1.00" shape="513.99,352.24 525.90,354.00 527.68,341.97 515.77,340.22 513.99,352.24" type="building"/>
   <poly color="red" fill="1" id="135700161" layer="-1.00" shape="512.17,368.96 523.04,370.57 524.65,359.61 513.79,358.02 512.17,368.96" type="building"/>
   <poly color="red" fill="1" id="135700162" layer="-1.00" shape="477.75,338.91 488.33,340.86 490.69,328.13 480.11,326.18 477.75,338.91" type="building"/>
   <poly color="red" fill="1" id="135700163" layer="-1.00" shape="307.29,273.62 316.15,275.05 317.83,264.74 308.97,263.30 307.29,273.62" type="building"/>
   <poly color="red" fill="1" id="135700164" layer="-1.00" shape="337.07,340.83 333.41,360.98 345.20,363.11 348.86,342.96 337.07,340.83" type="building"/>
   <poly color="red" fill="1" id="135700165" layer="-1.00" shape="274.31,363.89 265.54,362.23 263.79,371.42 272.56,373.08 274.31,363.89" type="building"/>
   <poly color="red" fill="1" id="135700166" layer="-1.00" shape="338.14,299.96 336.15,309.59 343.06,311.01 345.05,301.39 338.14,299.96" type="building"/>
   <poly color="red" fill="1" id="135700167" layer="-1.00" shape="455.21,332.11 463.38,333.53 465.43,321.81 457.26,320.39 455.21,332.11" type="building"/>
   <poly color="red" fill="1" id="135700168" layer="-1.00" shape="293.23,257.80 301.16,259.28 302.21,253.66 299.93,253.24 300.26,251.52 294.60,250.46 294.32,251.98 293.23,257.80" type="building"/>
   <poly color="red" fill="1" id="135700169" layer="-1.00" shape="377.47,392.13 385.03,393.49 386.91,383.07 379.35,381.72 377.47,392.13" type="building"/>
   <poly color="red" fill="1" id="135700170" layer="-1.00" shape="328.54,308.10 336.15,309.59 338.14,299.96 330.65,298.30 328.54,308.10" type="building"/>
   <poly color="red" fill="1" id="135700171" layer="-1.00" shape="321.44,244.39 319.22,256.81 329.65,258.66 331.87,246.24 321.44,244.39" type="building"/>
   <poly color="red" fill="1" id="135700172" layer="-1.00" shape="309.12,313.68 312.24,314.23 313.90,304.86 317.67,305.53 318.97,298.19 312.08,296.97 309.12,313.68" type="building"/>
   <poly color="red" fill="1" id="135700174" layer="-1.00" shape="265.54,362.23 274.31,363.89 277.60,346.63 268.83,344.97 265.54,362.23" type="building"/>
   <poly color="207,245,201" fill="1" id="140130990" layer="-2.00" shape="497.37,333.81 506.36,335.33 534.65,339.71 535.83,333.59 499.34,324.15 497.37,333.81" type="leisure"/>
   <poly color="207,245,201" fill="1" id="140130991" layer="-2.00" shape="500.50,117.94 504.14,96.03 578.59,110.96 578.22,112.93 574.21,133.76 538.34,125.77 500.50,117.94" type="leisure"/>
   <poly color="207,245,201" fill="1" id="140130992" layer="-2.00" shape="457.99,678.91 495.86,685.73 490.33,714.45 487.61,715.68 456.16,709.52 453.53,706.32 457.99,678.91" type="leisure"/>
   <poly color="207,245,201" fill="1" id="140130993" layer="-2.00" shape="172.10,155.23 149.56,150.85 163.04,82.59 185.18,88.40 172.10,155.23" type="leisure"/>
   <poly color="207,245,201" fill="1" id="140872676" layer="-2.00" shape="736.30,156.47 667.04,144.59 670.16,122.30 740.19,133.41 736.30,156.47" type="leisure"/>
   <poly color="red" fill="1" id="170717543" layer="-1.00" shape="303.24,180.29 313.84,182.34 310.09,201.60 299.50,199.54 303.24,180.29" type="building"/>
   <poly color="red" fill="1" id="170717875" layer="-1.00" shape="306.75,218.82 308.87,207.90 310.09,201.60 299.50,199.54 296.15,216.77 306.75,218.82" type="building"/>
   <poly color="194,194,130" fill="0" id="172991564" layer="-3.00" shape="813.90,46.18 809.35,40.08" type="landuse"/>
   <poly color="194,194,130" fill="0" id="172991566" layer="-3.00" shape="26.36,492.68 1.36,624.08" type="landuse"/>
   <poly color="235,235,227" fill="0" id="172991567" layer="-3.00" shape="1.36,624.08 26.36,492.68 -1.00,138.09 16.00,49.16 752.80,18.09 768.79,24.62 776.58,26.13 814.30,59.27 76.23,786.99" type="residential"/>
   <poly color="red" fill="1" id="188731067" layer="-1.00" shape="444.93,404.70 452.32,406.02 454.16,395.82 446.77,394.50 444.93,404.70" type="building"/>
   <poly color="red" fill="1" id="191911639" layer="-1.00" shape="33.50,105.18 23.22,103.22 21.64,111.57 31.91,113.51 33.50,105.18" type="building"/>
   <poly color="red" fill="1" id="191911640" layer="-1.00" shape="47.56,29.40 38.60,27.30 36.90,34.56 45.85,36.67 47.56,29.40" type="building"/>
   <poly color="red" fill="1" id="191911641" layer="-1.00" shape="52.25,7.80 41.87,5.88 40.44,13.61 50.83,15.53 52.25,7.80" type="building"/>
   <poly color="red" fill="1" id="191911642" layer="-1.00" shape="39.95,71.60 31.56,69.83 29.93,77.53 38.32,79.31 39.95,71.60" type="building"/>
   <poly color="red" fill="1" id="191911643" layer="-1.00" shape="44.39,46.27 32.44,43.77 30.65,52.30 42.60,54.80 44.39,46.27" type="building"/>
   <poly color="red" fill="1" id="191911652" layer="-1.00" shape="53.83,-0.78 41.87,5.88 52.25,7.80 53.83,-0.78" type="building"/>
   <poly color="red" fill="1" id="191911653" layer="-1.00" shape="29.12,131.49 18.91,129.58 17.17,138.92 27.38,140.83 29.12,131.49" type="building"/>
   <poly color="red" fill="1" id="191911661" layer="-1.00" shape="30.88,122.08 20.67,120.17 18.91,129.58 29.12,131.49 30.88,122.08" type="building"/>
   <poly color="red" fill="1" id="191911663" layer="-1.00" shape="35.27,95.82 33.50,105.18 23.22,103.22 24.99,93.87 35.27,95.82" type="building"/>
   <poly color="red" fill="1" id="191911673" layer="-1.00" shape="38.32,79.31 29.93,77.53 28.06,86.35 36.46,88.13 38.32,79.31" type="building"/>
   <poly color="red" fill="1" id="191911676" layer="-1.00" shape="42.60,54.80 30.65,52.30 28.94,60.48 40.89,62.98 42.60,54.80" type="building"/>
   <poly color="red" fill="1" id="191911680" layer="-1.00" shape="49.39,21.57 40.43,19.48 38.60,27.30 47.56,29.40 49.39,21.57" type="building"/>
   <poly color="194,194,130" fill="0" id="191911704" layer="-3.00" shape="-4.42,46.02 16.00,49.16 -1.00,138.09" type="landuse"/>
   <poly color="140,196,107" fill="0" id="191911705" layer="-4.00" shape="20.00,766.59 58.39,782.74 59.84,782.16 59.96,781.20 46.55,773.83" type="natural"/>
   <poly color="140,196,107" fill="1" id="191912358" layer="-4.00" shape="2.61,791.09 0.56,795.16 6.44,795.54 6.76,792.12 45.73,808.48 48.48,809.57 66.98,804.11 61.50,799.75 57.33,797.21 49.37,793.91 23.30,781.90 2.61,791.09" type="natural"/>
   <poly color="red" fill="1" id="191913336" layer="-1.00" shape="23.61,156.05 13.66,154.01 11.54,164.28 21.49,166.34 23.61,156.05" type="building"/>
   <poly color="red" fill="1" id="191913337" layer="-1.00" shape="15.31,200.91 3.57,198.48 1.70,207.58 13.43,210.00 15.31,200.91" type="building"/>
   <poly color="red" fill="1" id="191913338" layer="-1.00" shape="13.43,210.00 1.70,207.58 0.09,215.38 11.82,217.80 13.43,210.00" type="building"/>
   <poly color="red" fill="1" id="191913340" layer="-1.00" shape="15.60,144.62 25.55,146.67 23.61,156.05 13.66,154.01 15.60,144.62" type="building"/>
   <poly color="237,199,199" fill="1" id="202559096" layer="-1.00" shape="677.16,594.70 704.09,599.73 705.38,592.89 696.40,591.22 701.07,566.20 698.81,565.78 700.46,556.91 682.24,553.51 681.30,558.55 671.86,556.79 670.62,563.44 682.58,565.68 677.16,594.70" type="amenity"/>
   <poly color="red" fill="1" id="202559096#1" layer="-1.00" shape="677.16,594.70 704.09,599.73 705.38,592.89 696.40,591.22 701.07,566.20 698.81,565.78 700.46,556.91 682.24,553.51 681.30,558.55 671.86,556.79 670.62,563.44 682.58,565.68 677.16,594.70" type="building"/>
   <poly color="red" fill="1" id="202689771" layer="-1.00" shape="772.07,793.66 771.57,796.26 780.81,798.03 780.48,799.73 789.67,801.47 790.50,797.18 772.07,793.66" type="building"/>
   <poly color="red" fill="1" id="202689774" layer="-1.00" shape="677.94,806.67" type="building"/>
   <poly color="red" fill="1" id="202689776" layer="-1.00" shape="652.07,758.72 651.31,762.77 669.27,766.15 669.70,763.90 661.12,762.28 661.46,760.49 652.07,758.72" type="building"/>
   <poly color="red" fill="1" id="202689777" layer="-1.00" shape="735.57,778.71 722.88,776.37 722.42,778.84 735.11,781.19 734.83,782.68 744.16,784.41 744.90,780.45 735.57,778.71" type="building"/>
   <poly color="red" fill="1" id="202689779" layer="-1.00" shape="693.51,770.66 692.73,774.64 701.59,776.35 701.88,774.90 710.02,776.47 710.51,773.94 693.51,770.66" type="building"/>
   <poly color="red" fill="1" id="202970173" layer="-1.00" shape="578.51,748.57 581.56,749.16 582.00,746.90 568.29,744.26 568.72,742.08 560.76,740.55 559.90,744.98 578.51,748.57" type="building"/>
   <poly color="red" fill="1" id="202970174" layer="-1.00" shape="596.76,780.73 596.40,782.56 592.34,781.77 592.64,780.24 589.36,779.60 588.62,783.32 605.17,786.58 605.97,782.54 596.76,780.73" type="building"/>
   <poly color="red" fill="1" id="202970177" layer="-1.00" shape="602.68,749.32 602.42,750.72 594.71,749.27 594.23,751.83 611.05,754.98 611.79,751.03 602.68,749.32" type="building"/>
   <poly color="red" fill="1" id="202970180" layer="-1.00" shape="554.79,771.77 553.96,776.20 571.11,779.40 571.60,776.82 562.41,775.11 562.76,773.26 554.79,771.77" type="building"/>
   <poly color="237,199,199" fill="1" id="202981265" layer="-1.00" shape="647.39,552.27 657.66,554.29 660.43,540.16 650.29,538.17 651.17,533.64 626.26,528.75 623.32,543.77 648.10,548.63 647.39,552.27" type="amenity"/>
   <poly color="red" fill="1" id="202981265#1" layer="-1.00" shape="647.39,552.27 657.66,554.29 660.43,540.16 650.29,538.17 651.17,533.64 626.26,528.75 623.32,543.77 648.10,548.63 647.39,552.27" type="building"/>
   <poly color="237,199,199" fill="1" id="203219708" layer="-1.00" shape="444.25,804.55 456.10,807.02 456.66,803.73 460.16,804.24 475.03,803.87 477.57,804.39 478.85,796.60 476.41,796.23 477.64,789.89 479.37,790.38 480.46,784.21 478.78,783.92 481.15,771.77 479.25,771.56 479.95,768.13 475.09,767.11 474.85,768.78 472.42,768.35 472.55,766.86 467.47,765.51 467.22,767.76 465.16,767.36 465.41,765.62 458.73,764.34 458.33,767.11 457.03,767.11 455.28,773.17 463.51,774.50 462.49,780.08 461.01,779.83 459.83,785.84 464.97,792.59 462.11,794.45 459.24,790.59 457.71,790.26 457.90,788.65 452.00,787.53 451.73,789.26 447.09,788.52 444.25,804.55" type="amenity"/>
   <poly color="red" fill="1" id="203219708#1" layer="-1.00" shape="444.25,804.55 456.10,807.02 456.66,803.73 460.16,804.24 475.03,803.87 477.57,804.39 478.85,796.60 476.41,796.23 477.64,789.89 479.37,790.38 480.46,784.21 478.78,783.92 481.15,771.77 479.25,771.56 479.95,768.13 475.09,767.11 474.85,768.78 472.42,768.35 472.55,766.86 467.47,765.51 467.22,767.76 465.16,767.36 465.41,765.62 458.73,764.34 458.33,767.11 457.03,767.11 455.28,773.17 463.51,774.50 462.49,780.08 461.01,779.83 459.83,785.84 464.97,792.59 462.11,794.45 459.24,790.59 457.71,790.26 457.90,788.65 452.00,787.53 451.73,789.26 447.09,788.52 444.25,804.55" type="building"/>
   <poly color="red" fill="1" id="203223789" layer="-1.00" shape="514.96,768.36 515.80,763.96 507.60,762.41 507.12,764.91 497.81,763.16 497.45,765.06 514.96,768.36" type="building"/>
   <poly color="red" fill="1" id="203223791" layer="-1.00" shape="659.89,624.24 665.48,625.28 667.34,615.32 661.75,614.28 659.89,624.24" type="building"/>
   <poly color="red" fill="1" id="203223792" layer="-1.00" shape="547.41,644.76 562.70,647.76 564.16,640.40 548.86,637.40 547.41,644.76" type="building"/>
   <poly color="red" fill="1" id="203223793" layer="-1.00" shape="710.18,668.24 705.64,667.36 704.38,673.88 694.54,671.97 692.66,681.69 707.04,684.47 710.05,668.92 710.18,668.24" type="building"/>
   <poly color="red" fill="1" id="203223794" layer="-1.00" shape="613.96,615.36 619.50,616.41 621.37,606.57 615.83,605.51 613.96,615.36" type="building"/>
   <poly color="red" fill="1" id="203223796" layer="-1.00" shape="722.40,670.95 749.43,676.12 753.18,656.63 744.17,654.91 741.53,668.69 732.66,666.99 733.33,663.49 724.18,661.74 722.40,670.95" type="building"/>
   <poly color="red" fill="1" id="203223797" layer="-1.00" shape="752.27,676.89 779.49,682.05 783.24,662.39 773.99,660.63 771.33,674.54 753.37,671.13 752.27,676.89" type="building"/>
   <poly color="red" fill="1" id="203223798" layer="-1.00" shape="500.64,798.74 500.22,801.03 490.15,799.18 489.76,801.22 507.88,804.54 508.68,800.22 500.64,798.74" type="building"/>
   <poly color="red" fill="1" id="203223801" layer="-1.00" shape="458.94,730.52 461.65,731.04 460.73,735.76 462.35,736.07 464.92,722.92 460.59,722.09 458.94,730.52" type="building"/>
   <poly color="red" fill="1" id="203223804" layer="-1.00" shape="513.61,731.75 513.37,733.00 503.09,731.05 502.50,734.15 520.72,737.63 521.55,733.27 513.61,731.75" type="building"/>
   <poly color="red" fill="1" id="203226720" layer="-1.00" shape="199.37,703.30 214.25,706.03 217.35,689.34 227.39,691.18 229.90,677.60 204.98,673.02 199.37,703.30" type="building"/>
   <poly color="207,245,201" fill="1" id="203226720#1" layer="-2.00" shape="199.37,703.30 214.25,706.03 217.35,689.34 227.39,691.18 229.90,677.60 204.98,673.02 199.37,703.30" type="tourism"/>
   <poly color="red" fill="1" id="203226721" layer="-1.00" shape="195.35,720.74 209.76,723.43 212.28,709.97 197.86,707.28 195.35,720.74" type="building"/>
   <poly color="red" fill="1" id="203226723" layer="-1.00" shape="207.17,745.20 215.19,746.60 217.15,735.42 209.13,734.01 207.17,745.20" type="building"/>
   <poly color="red" fill="1" id="203226725" layer="-1.00" shape="181.59,795.85 189.34,797.18 190.87,788.24 183.13,786.91 181.59,795.85" type="building"/>
   <poly color="red" fill="0" id="203226727" layer="-1.00" shape="192.71,805.97 184.36,804.42" type="building"/>
   <poly color="red" fill="1" id="203226728" layer="-1.00" shape="184.91,776.05 193.21,777.64 195.06,767.98 186.76,766.39 184.91,776.05" type="building"/>
   <poly color="red" fill="1" id="203226729" layer="-1.00" shape="188.72,756.32 197.37,758.06 199.24,748.74 190.60,747.00 188.72,756.32" type="building"/>
   <poly color="red" fill="1" id="203226730" layer="-1.00" shape="192.54,737.57 200.09,739.13 202.02,729.77 194.46,728.21 192.54,737.57" type="building"/>
   <poly color="red" fill="1" id="203266414" layer="-1.00" shape="403.48,25.08 416.85,27.75 403.48,25.08" type="building"/>
   <poly color="red" fill="1" id="203266415" layer="-1.00" shape="349.53,18.36 364.54,21.22 349.53,18.36" type="building"/>
   <poly color="red" fill="1" id="203266416" layer="-1.00" shape="424.29,63.14 439.45,66.02 424.29,63.14" type="building"/>
   <poly color="red" fill="1" id="203266417" layer="-1.00" shape="342.39,50.06 410.36,61.94 413.70,42.98 345.72,31.10 342.39,50.06" type="building"/>
   <poly color="red" fill="1" id="204042389" layer="-1.00" shape="169.41,747.28 176.33,748.58 177.75,740.99 159.30,737.53 157.78,745.64 163.72,746.76 164.60,742.07 170.19,743.11 169.41,747.28" type="building"/>
   <poly color="red" fill="1" id="204042390" layer="-1.00" shape="95.12,532.70 103.40,534.31 106.68,517.50 98.40,515.88 95.12,532.70" type="building"/>
   <poly color="red" fill="1" id="204042391" layer="-1.00" shape="49.58,621.90 57.82,623.59 61.29,606.75 53.05,605.06 49.58,621.90" type="building"/>
   <poly color="red" fill="1" id="204042392" layer="-1.00" shape="41.22,524.87 49.51,526.39 52.56,509.79 44.27,508.28 41.22,524.87" type="building"/>
   <poly color="red" fill="1" id="204042393" layer="-1.00" shape="64.56,560.84 73.37,562.64 76.99,545.09 68.18,543.29 64.56,560.84" type="building"/>