<?xml version="1.0" encoding="utf-8"?><!-- generated on 10/11/17 17:53:42 by SUMO netconvert Version 0.25.0
<?xml version="1.0" encoding="UTF-8"?>

<configuration xmlns:xsi="http://www.w3.org/2001/XMLSchema-instance" xsi:noNamespaceSchemaLocation="http://sumo.dlr.de/xsd/netconvertConfiguration.xsd">

    <input>
        <type-files value="osmNetconvert.typ.xml"/>
        <osm-files value="HD_Pfaffengr_urban_800.osm"/>
    </input>

    <output>
        <output-file value="HD_Pfaffengr_urban_800.net.xml"/>
    </output>

    <projection>
        <proj.utm value="true"/>
    </projection>

    <edge_removal>
        <remove-edges.by-type value="highway.track,highway.unsurfaced,highway.raceway,highway.bridleway,highway.path,highway.footway,highway.pedestrian,highway.cycleway,highway.step,highway.steps,highway.stairs,highway.bus_guideway,highway.ford,railway.rail,railway.tram,railway.light_rail,railway.subway,railway.preserved,railway.narrow_gauge,railway.monorail,railway.funicular"/>
    </edge_removal>

</configuration>
-->
<net version="0.25">
   <location convBoundary="0.00,0.00,813.47,807.26" netOffset="-473795.53,-5471365.14" origBoundary="8.638827,49.394430,8.650097,49.401694" projParameter="+proj=utm +zone=32 +ellps=WGS84 +datum=WGS84 +units=m +no_defs"/>
   <type allow="pedestrian" id="highway.bridleway" numLanes="1" oneway="1" priority="1" speed="2.78" width="2.00"/>
   <type allow="bus" id="highway.bus_guideway" numLanes="1" oneway="1" priority="1" speed="8.33"/>
   <type allow="bicycle" id="highway.cycleway" numLanes="1" oneway="0" priority="1" speed="5.56" width="1.00"/>
   <type allow="pedestrian" id="highway.footway" numLanes="1" oneway="1" priority="1" speed="8.33" width="2.00"/>
   <type allow="army" id="highway.ford" numLanes="1" oneway="0" priority="1" speed="2.78"/>
   <type disallow="tram rail_urban rail rail_electric ship" id="highway.living_street" numLanes="1" oneway="0" priority="3" speed="2.78"/>
   <type allow="private emergency authority army vip passenger hov taxi bus coach delivery truck trailer motorcycle evehicle custom1 custom2" id="highway.motorway" numLanes="2" oneway="1" priority="13" speed="44.44"/>
   <type allow="private emergency authority army vip passenger hov taxi bus coach delivery truck trailer motorcycle evehicle custom1 custom2" id="highway.motorway_link" numLanes="1" oneway="1" priority="12" speed="22.22"/>
   <type allow="bicycle pedestrian" id="highway.path" numLanes="1" oneway="1" priority="1" speed="2.78" width="2.00"/>
   <type allow="pedestrian" id="highway.pedestrian" numLanes="1" oneway="1" priority="1" speed="8.33" width="2.00"/>
   <type disallow="tram rail_urban rail rail_electric ship" id="highway.primary" numLanes="2" oneway="0" priority="9" speed="27.78"/>
   <type disallow="tram rail_urban rail rail_electric ship" id="highway.primary_link" numLanes="1" oneway="0" priority="8" speed="22.22"/>
   <type allow="vip" id="highway.raceway" numLanes="2" oneway="0" priority="14" speed="83.33"/>
   <type disallow="tram rail_urban rail rail_electric ship" id="highway.residential" numLanes="1" oneway="0" priority="4" speed="13.89"/>
   <type disallow="tram rail_urban rail rail_electric ship" id="highway.secondary" numLanes="2" oneway="0" priority="7" speed="27.78"/>
   <type disallow="tram rail_urban rail rail_electric ship" id="highway.secondary_link" numLanes="1" oneway="0" priority="6" speed="22.22"/>
   <type allow="delivery bicycle pedestrian" id="highway.service" numLanes="1" oneway="0" priority="2" speed="5.56"/>
   <type disallow="tram rail_urban rail rail_electric ship" id="highway.services" numLanes="1" oneway="0" priority="1" speed="8.33"/>
   <type allow="pedestrian" id="highway.stairs" numLanes="1" oneway="1" priority="1" speed="1.39" width="2.00"/>
   <type allow="pedestrian" id="highway.step" numLanes="1" oneway="1" priority="1" speed="1.39" width="2.00"/>
   <type allow="pedestrian" id="highway.steps" numLanes="1" oneway="1" priority="1" speed="1.39" width="2.00"/>
   <type disallow="tram rail_urban rail rail_electric ship" id="highway.tertiary" numLanes="1" oneway="0" priority="6" speed="22.22"/>
   <type disallow="tram rail_urban rail rail_electric ship" id="highway.tertiary_link" numLanes="1" oneway="0" priority="5" speed="22.22"/>
   <type disallow="tram rail_urban rail rail_electric ship" id="highway.track" numLanes="1" oneway="0" priority="1" speed="5.56"/>
   <type disallow="tram rail_urban rail rail_electric bicycle pedestrian ship" id="highway.trunk" numLanes="2" oneway="0" priority="11" speed="27.78"/>
   <type disallow="tram rail_urban rail rail_electric bicycle pedestrian ship" id="highway.trunk_link" numLanes="1" oneway="0" priority="10" speed="22.22"/>
   <type disallow="tram rail_urban rail rail_electric ship" id="highway.unclassified" numLanes="1" oneway="0" priority="5" speed="13.89"/>
   <type disallow="tram rail_urban rail rail_electric ship" id="highway.unsurfaced" numLanes="1" oneway="0" priority="1" speed="8.33"/>
   <type allow="rail_urban" id="railway.light_rail" numLanes="1" oneway="1" priority="15" speed="27.78"/>
   <type allow="rail" id="railway.preserved" numLanes="1" oneway="1" priority="15" speed="27.78"/>
   <type allow="rail rail_electric" id="railway.rail" numLanes="1" oneway="1" priority="15" speed="83.33"/>
   <type allow="rail_urban" id="railway.subway" numLanes="1" oneway="1" priority="15" speed="27.78"/>
   <type allow="tram" id="railway.tram" numLanes="1" oneway="1" priority="15" speed="13.89"/>
   <edge function="internal" id=":1069567417_0">
      <lane disallow="tram rail_urban rail rail_electric ship" id=":1069567417_0_0" index="0" length="4.82" shape="646.78,1.47 646.05,0.17 646.06,-0.75 646.80,-1.30 648.28,-1.47" speed="8.33"/>
   </edge>
   <edge function="internal" id=":1069567418_0">
      <lane disallow="tram rail_urban rail rail_electric ship" id=":1069567418_0_0" index="0" length="5.00" shape="153.93,514.24 152.56,514.18 151.50,514.57 150.74,515.41 150.30,516.71" speed="8.33"/>
   </edge>
   <edge function="internal" id=":1069567418_1">
      <lane disallow="tram rail_urban rail rail_electric ship" id=":1069567418_1_0" index="0" length="9.50" shape="153.93,514.24 144.59,512.46" speed="8.33"/>
   </edge>
   <edge function="internal" id=":1069567418_2">
      <lane disallow="tram rail_urban rail rail_electric ship" id=":1069567418_2_0" index="0" length="4.82" shape="153.93,514.24 152.87,513.20 152.61,512.31 153.17,511.58 154.54,511.00" speed="8.33"/>
   </edge>
   <edge function="internal" id=":1069567418_3">
      <lane disallow="tram rail_urban rail rail_electric ship" id=":1069567418_3_0" index="0" length="9.50" shape="145.21,509.22 154.54,511.00" speed="8.33"/>
   </edge>
   <edge function="internal" id=":1069567418_4">
      <lane disallow="tram rail_urban rail rail_electric ship" id=":1069567418_4_0" index="0" length="10.33" shape="145.21,509.22 147.89,510.14 149.63,511.69 150.43,513.88 150.30,516.71" speed="8.33"/>
   </edge>
   <edge function="internal" id=":1069567418_5">
      <lane disallow="tram rail_urban rail rail_electric ship" id=":1069567418_5_0" index="0" length="4.82" shape="145.21,509.22 146.27,510.26 146.52,511.15 145.97,511.88 144.59,512.46" speed="8.33"/>
   </edge>
   <edge function="internal" id=":1069567418_6">
      <lane disallow="tram rail_urban rail rail_electric ship" id=":1069567418_6_0" index="0" length="5.00" shape="147.06,516.09 147.12,514.72 146.73,513.66 145.89,512.90 144.59,512.46" speed="8.33"/>
   </edge>
   <edge function="internal" id=":1069567418_7">
      <lane disallow="tram rail_urban rail rail_electric ship" id=":1069567418_7_0" index="0" length="10.32" shape="147.06,516.09 147.98,513.41 149.53,511.67 151.72,510.87 154.54,511.00" speed="8.33"/>
   </edge>
   <edge function="internal" id=":1069567418_8">
      <lane disallow="tram rail_urban rail rail_electric ship" id=":1069567418_8_0" index="0" length="4.82" shape="147.06,516.09 148.10,515.03 148.99,514.78 149.72,515.34 150.30,516.71" speed="8.33"/>
   </edge>
   <edge function="internal" id=":1183951335_0">
      <lane disallow="tram rail_urban rail rail_electric ship" id=":1183951335_0_0" index="0" length="4.82" shape="384.57,763.92 383.53,764.98 382.64,765.23 381.91,764.67 381.33,763.30" speed="8.33"/>
   </edge>
   <edge function="internal" id=":1232660971_0">
      <lane disallow="tram rail_urban rail rail_electric ship" id=":1232660971_0_0" index="0" length="4.82" shape="0.67,628.25 -0.39,627.20 -0.64,626.32 -0.08,625.58 1.29,625.01" speed="8.33"/>
   </edge>
   <edge function="internal" id=":1437353553_0">
      <lane disallow="tram rail_urban rail rail_electric ship" id=":1437353553_0_0" index="0" length="4.82" shape="814.71,118.88 814.90,120.36 814.55,121.21 813.66,121.44 812.22,121.05" speed="8.33"/>
   </edge>
   <edge function="internal" id=":1995554423_0">
      <lane disallow="tram rail_urban rail rail_electric ship" id=":1995554423_0_0" index="0" length="0.10" shape="51.61,786.94 51.60,786.96" speed="22.22"/>
   </edge>
   <edge function="internal" id=":1995554423_1">
      <lane disallow="tram rail_urban rail rail_electric ship" id=":1995554423_1_0" index="0" length="0.10" shape="52.93,783.94 52.92,783.94" speed="22.22"/>
   </edge>
   <edge function="internal" id=":1995554423_2">
      <lane disallow="tram rail_urban rail rail_electric ship" id=":1995554423_2_0" index="0" length="2.41" shape="52.93,783.94 53.73,785.19 53.77,786.12" speed="22.22"/>
   </edge>
   <edge function="internal" id=":1995554423_3">
      <lane id=":1995554423_3_0" index="0" length="2.41" shape="53.77,786.12 53.06,786.71 51.60,786.96" speed="22.22"/>
   </edge>
   <edge function="internal" id=":1995554438_0">
      <lane disallow="tram rail_urban rail rail_electric ship" id=":1995554438_0_0" index="0" length="0.10" shape="78.83,795.34 78.83,795.34" speed="22.22"/>
   </edge>
   <edge function="internal" id=":2024835515_0">
      <lane disallow="tram rail_urban rail rail_electric ship" id=":2024835515_0_0" index="0" length="4.82" shape="183.30,758.69 182.26,759.74 181.37,759.99 180.64,759.43 180.06,758.06" speed="8.33"/>
   </edge>
   <edge function="internal" id=":2214788324_0">
      <lane allow="delivery bicycle pedestrian" id=":2214788324_0_0" index="0" length="0.10" shape="361.93,66.48 361.93,66.48" speed="5.56"/>
   </edge>
   <edge function="internal" id=":2214788324_1">
      <lane allow="delivery bicycle pedestrian" id=":2214788324_1_0" index="0" length="2.41" shape="361.93,66.48 360.87,65.44 360.62,64.55" speed="5.56"/>
   </edge>
   <edge function="internal" id=":2214788324_4">
      <lane id=":2214788324_4_0" index="0" length="2.41" shape="360.62,64.55 361.18,63.82 362.55,63.24" speed="5.56"/>
   </edge>
   <edge function="internal" id=":2214788324_2">
      <lane allow="delivery bicycle pedestrian" id=":2214788324_2_0" index="0" length="0.10" shape="362.55,63.24 362.55,63.24" speed="5.56"/>
   </edge>
   <edge function="internal" id=":2214788324_3">
      <lane allow="delivery bicycle pedestrian" id=":2214788324_3_0" index="0" length="2.41" shape="362.55,63.24 363.61,64.29 363.86,65.17" speed="5.56"/>
   </edge>
   <edge function="internal" id=":2214788324_5">
      <lane id=":2214788324_5_0" index="0" length="2.41" shape="363.86,65.17 363.30,65.91 361.93,66.48" speed="5.56"/>
   </edge>
   <edge function="internal" id=":2214805470_0">
      <lane disallow="tram rail_urban rail rail_electric ship" id=":2214805470_0_0" index="0" length="0.10" shape="503.29,74.16 503.29,74.16" speed="8.33"/>
   </edge>
   <edge function="internal" id=":2214805473_0">
      <lane disallow="tram rail_urban rail rail_electric ship" id=":2214805473_0_0" index="0" length="0.10" shape="513.40,21.53 513.40,21.53" speed="8.33"/>
   </edge>
   <edge function="internal" id=":2214805478_0">
      <lane disallow="tram rail_urban rail rail_electric ship" id=":2214805478_0_0" index="0" length="0.10" shape="509.97,39.40 509.97,39.40" speed="8.33"/>
   </edge>
   <edge function="internal" id=":2214805480_0">
      <lane disallow="tram rail_urban rail rail_electric ship" id=":2214805480_0_0" index="0" length="0.10" shape="506.77,56.04 506.77,56.04" speed="8.33"/>
   </edge>
   <edge function="internal" id=":2214813229_0">
      <lane disallow="tram rail_urban rail rail_electric ship" id=":2214813229_0_0" index="0" length="0.10" shape="589.39,54.77 589.39,54.77" speed="8.33"/>
   </edge>
   <edge function="internal" id=":2214813245_0">
      <lane disallow="tram rail_urban rail rail_electric ship" id=":2214813245_0_0" index="0" length="0.10" shape="586.12,71.74 586.12,71.74" speed="8.33"/>
   </edge>
   <edge function="internal" id=":2214813255_0">
      <lane disallow="tram rail_urban rail rail_electric ship" id=":2214813255_0_0" index="0" length="0.10" shape="592.82,36.87 592.82,36.87" speed="8.33"/>
   </edge>
   <edge function="internal" id=":2214813287_0">
      <lane disallow="tram rail_urban rail rail_electric ship" id=":2214813287_0_0" index="0" length="0.10" shape="582.90,88.53 582.90,88.53" speed="8.33"/>
   </edge>
   <edge function="internal" id=":2214882252_0">
      <lane disallow="tram rail_urban rail rail_electric ship" id=":2214882252_0_0" index="0" length="0.10" shape="279.92,49.16 279.92,49.16" speed="13.89"/>
   </edge>
   <edge function="internal" id=":2215379918_0">
      <lane disallow="tram rail_urban rail rail_electric ship" id=":2215379918_0_0" index="0" length="0.10" shape="199.98,161.24 199.98,161.24" speed="8.33"/>
   </edge>
   <edge function="internal" id=":2215379918_1">
      <lane disallow="tram rail_urban rail rail_electric ship" id=":2215379918_1_0" index="0" length="2.41" shape="199.98,161.24 198.94,162.30 198.05,162.55" speed="8.33"/>
   </edge>
   <edge function="internal" id=":2215379918_4">
      <lane id=":2215379918_4_0" index="0" length="2.41" shape="198.05,162.55 197.32,161.99 196.74,160.62" speed="8.33"/>
   </edge>
   <edge function="internal" id=":2215379918_2">
      <lane disallow="tram rail_urban rail rail_electric ship" id=":2215379918_2_0" index="0" length="0.10" shape="196.74,160.62 196.74,160.62" speed="8.33"/>
   </edge>
   <edge function="internal" id=":2215379918_3">
      <lane disallow="tram rail_urban rail rail_electric ship" id=":2215379918_3_0" index="0" length="2.41" shape="196.74,160.62 197.79,159.56 198.68,159.31" speed="8.33"/>
   </edge>
   <edge function="internal" id=":2215379918_5">
      <lane id=":2215379918_5_0" index="0" length="2.41" shape="198.68,159.31 199.41,159.87 199.98,161.24" speed="8.33"/>
   </edge>
   <edge function="internal" id=":2215379920_0">
      <lane disallow="tram rail_urban rail rail_electric ship" id=":2215379920_0_0" index="0" length="9.50" shape="249.38,215.14 240.05,213.36" speed="8.33"/>
   </edge>
   <edge function="internal" id=":2215379920_1">
      <lane allow="delivery bicycle pedestrian" id=":2215379920_1_0" index="0" length="7.85" shape="249.38,215.14 246.67,214.42 244.81,213.48 243.81,212.30 243.67,210.89" speed="6.95"/>
   </edge>
   <edge function="internal" id=":2215379920_2">
      <lane disallow="tram rail_urban rail rail_electric ship" id=":2215379920_2_0" index="0" length="7.85" shape="246.91,211.51 246.27,212.77 244.91,213.50 242.84,213.69 240.05,213.36" speed="6.95"/>
   </edge>
   <edge function="internal" id=":2215379920_3">
      <lane allow="delivery bicycle pedestrian" id=":2215379920_3_0" index="0" length="4.82" shape="246.91,211.51 245.87,212.57 244.99,212.82 244.25,212.26 243.67,210.89" speed="5.56"/>
   </edge>
   <edge function="internal" id=":2215379924_0">
      <lane disallow="tram rail_urban rail rail_electric ship" id=":2215379924_0_0" index="0" length="0.10" shape="163.53,28.61 163.53,28.61" speed="13.89"/>
   </edge>
   <edge function="internal" id=":2215379924_1">
      <lane disallow="tram rail_urban rail rail_electric ship" id=":2215379924_1_0" index="0" length="2.41" shape="163.53,28.61 162.47,27.57 162.22,26.68" speed="13.89"/>
   </edge>
   <edge function="internal" id=":2215379924_4">
      <lane id=":2215379924_4_0" index="0" length="2.41" shape="162.22,26.68 162.78,25.95 164.15,25.37" speed="13.89"/>
   </edge>
   <edge function="internal" id=":2215379924_2">
      <lane disallow="tram rail_urban rail rail_electric ship" id=":2215379924_2_0" index="0" length="0.10" shape="164.15,25.37 164.15,25.37" speed="13.89"/>
   </edge>
   <edge function="internal" id=":2215379924_3">
      <lane disallow="tram rail_urban rail rail_electric ship" id=":2215379924_3_0" index="0" length="2.41" shape="164.15,25.37 165.21,26.41 165.46,27.30" speed="13.89"/>
   </edge>
   <edge function="internal" id=":2215379924_5">
      <lane id=":2215379924_5_0" index="0" length="2.41" shape="165.46,27.30 164.90,28.04 163.53,28.61" speed="13.89"/>
   </edge>
   <edge function="internal" id=":2215379925_0">
      <lane disallow="tram rail_urban rail rail_electric ship" id=":2215379925_0_0" index="0" length="0.10" shape="211.82,207.97 211.82,207.97" speed="8.33"/>
   </edge>
   <edge function="internal" id=":2215379929_0">
      <lane disallow="tram rail_urban rail rail_electric ship" id=":2215379929_0_0" index="0" length="0.10" shape="158.53,199.48 158.53,199.48" speed="8.33"/>
   </edge>
   <edge function="internal" id=":2215379929_1">
      <lane disallow="tram rail_urban rail rail_electric ship" id=":2215379929_1_0" index="0" length="2.41" shape="158.53,199.48 157.47,198.44 157.22,197.55" speed="8.33"/>
   </edge>
   <edge function="internal" id=":2215379929_4">
      <lane id=":2215379929_4_0" index="0" length="2.41" shape="157.22,197.55 157.78,196.82 159.15,196.24" speed="8.33"/>
   </edge>
   <edge function="internal" id=":2215379929_2">
      <lane disallow="tram rail_urban rail rail_electric ship" id=":2215379929_2_0" index="0" length="0.10" shape="159.15,196.24 159.15,196.24" speed="8.33"/>
   </edge>
   <edge function="internal" id=":2215379929_3">
      <lane disallow="tram rail_urban rail rail_electric ship" id=":2215379929_3_0" index="0" length="2.41" shape="159.15,196.24 160.21,197.28 160.46,198.17" speed="8.33"/>
   </edge>
   <edge function="internal" id=":2215379929_5">
      <lane id=":2215379929_5_0" index="0" length="2.41" shape="160.46,198.17 159.90,198.90 158.53,199.48" speed="8.33"/>
   </edge>
   <edge function="internal" id=":2215379930_0">
      <lane disallow="tram rail_urban rail rail_electric ship" id=":2215379930_0_0" index="0" length="0.10" shape="117.86,145.39 117.86,145.39" speed="8.33"/>
   </edge>
   <edge function="internal" id=":2215379930_1">
      <lane disallow="tram rail_urban rail rail_electric ship" id=":2215379930_1_0" index="0" length="2.41" shape="117.86,145.39 116.82,146.45 115.93,146.70" speed="8.33"/>
   </edge>
   <edge function="internal" id=":2215379930_4">
      <lane id=":2215379930_4_0" index="0" length="2.41" shape="115.93,146.70 115.20,146.14 114.62,144.77" speed="8.33"/>
   </edge>
   <edge function="internal" id=":2215379930_2">
      <lane disallow="tram rail_urban rail rail_electric ship" id=":2215379930_2_0" index="0" length="0.10" shape="114.62,144.77 114.62,144.77" speed="8.33"/>
   </edge>
   <edge function="internal" id=":2215379930_3">
      <lane disallow="tram rail_urban rail rail_electric ship" id=":2215379930_3_0" index="0" length="2.41" shape="114.62,144.77 115.67,143.71 116.55,143.46" speed="8.33"/>
   </edge>
   <edge function="internal" id=":2215379930_5">
      <lane id=":2215379930_5_0" index="0" length="2.41" shape="116.55,143.46 117.29,144.02 117.86,145.39" speed="8.33"/>
   </edge>
   <edge function="internal" id=":2215379936_0">
      <lane disallow="tram rail_urban rail rail_electric ship" id=":2215379936_0_0" index="0" length="0.10" shape="215.16,82.21 215.16,82.21" speed="8.33"/>
   </edge>
   <edge function="internal" id=":2215379936_1">
      <lane disallow="tram rail_urban rail rail_electric ship" id=":2215379936_1_0" index="0" length="2.41" shape="215.16,82.21 214.12,83.27 213.23,83.52" speed="8.33"/>
   </edge>
   <edge function="internal" id=":2215379936_4">
      <lane id=":2215379936_4_0" index="0" length="2.41" shape="213.23,83.52 212.50,82.96 211.92,81.59" speed="8.33"/>
   </edge>
   <edge function="internal" id=":2215379936_2">
      <lane disallow="tram rail_urban rail rail_electric ship" id=":2215379936_2_0" index="0" length="0.10" shape="211.92,81.59 211.92,81.59" speed="8.33"/>
   </edge>
   <edge function="internal" id=":2215379936_3">
      <lane disallow="tram rail_urban rail rail_electric ship" id=":2215379936_3_0" index="0" length="2.41" shape="211.92,81.59 212.96,80.53 213.85,80.28" speed="8.33"/>
   </edge>
   <edge function="internal" id=":2215379936_5">
      <lane id=":2215379936_5_0" index="0" length="2.41" shape="213.85,80.28 214.58,80.84 215.16,82.21" speed="8.33"/>
   </edge>
   <edge function="internal" id=":2215379937_0">
      <lane allow="delivery bicycle pedestrian" id=":2215379937_0_0" index="0" length="0.10" shape="254.51,170.89 254.51,170.89" speed="5.56"/>
   </edge>
   <edge function="internal" id=":2215379937_1">
      <lane allow="delivery bicycle pedestrian" id=":2215379937_1_0" index="0" length="2.41" shape="254.51,170.89 253.51,171.99 252.64,172.27" speed="5.56"/>
   </edge>
   <edge function="internal" id=":2215379937_4">
      <lane id=":2215379937_4_0" index="0" length="2.41" shape="252.64,172.27 251.88,171.74 251.25,170.39" speed="5.56"/>
   </edge>
   <edge function="internal" id=":2215379937_2">
      <lane allow="delivery bicycle pedestrian" id=":2215379937_2_0" index="0" length="0.10" shape="251.25,170.40 251.25,170.39" speed="5.56"/>
   </edge>
   <edge function="internal" id=":2215379937_3">
      <lane allow="delivery bicycle pedestrian" id=":2215379937_3_0" index="0" length="2.41" shape="251.25,170.40 252.25,169.29 253.13,169.01" speed="5.56"/>
   </edge>
   <edge function="internal" id=":2215379937_5">
      <lane id=":2215379937_5_0" index="0" length="2.41" shape="253.13,169.01 253.88,169.54 254.51,170.89" speed="5.56"/>
   </edge>
   <edge function="internal" id=":2215379942_0">
      <lane disallow="tram rail_urban rail rail_electric ship" id=":2215379942_0_0" index="0" length="0.10" shape="189.84,33.64 189.84,33.64" speed="13.89"/>
   </edge>
   <edge function="internal" id=":2215379942_1">
      <lane disallow="tram rail_urban rail rail_electric ship" id=":2215379942_1_0" index="0" length="2.41" shape="189.84,33.64 188.78,32.59 188.53,31.71" speed="13.89"/>
   </edge>
   <edge function="internal" id=":2215379942_4">
      <lane id=":2215379942_4_0" index="0" length="2.41" shape="188.53,31.71 189.09,30.97 190.46,30.39" speed="13.89"/>
   </edge>
   <edge function="internal" id=":2215379942_2">
      <lane disallow="tram rail_urban rail rail_electric ship" id=":2215379942_2_0" index="0" length="0.10" shape="190.46,30.39 190.46,30.39" speed="13.89"/>
   </edge>
   <edge function="internal" id=":2215379942_3">
      <lane disallow="tram rail_urban rail rail_electric ship" id=":2215379942_3_0" index="0" length="2.41" shape="190.46,30.39 191.52,31.44 191.78,32.32" speed="13.89"/>
   </edge>
   <edge function="internal" id=":2215379942_5">
      <lane id=":2215379942_5_0" index="0" length="2.41" shape="191.78,32.32 191.22,33.06 189.84,33.64" speed="13.89"/>
   </edge>
   <edge function="internal" id=":2215379949_0">
      <lane disallow="tram rail_urban rail rail_electric ship" id=":2215379949_0_0" index="0" length="0.10" shape="131.14,194.25 131.14,194.25" speed="8.33"/>
   </edge>
   <edge function="internal" id=":2215379949_1">
      <lane disallow="tram rail_urban rail rail_electric ship" id=":2215379949_1_0" index="0" length="2.41" shape="131.14,194.25 130.08,193.21 129.82,192.32" speed="8.33"/>
   </edge>
   <edge function="internal" id=":2215379949_4">
      <lane id=":2215379949_4_0" index="0" length="2.41" shape="129.82,192.32 130.38,191.59 131.75,191.01" speed="8.33"/>
   </edge>
   <edge function="internal" id=":2215379949_2">
      <lane disallow="tram rail_urban rail rail_electric ship" id=":2215379949_2_0" index="0" length="0.10" shape="131.75,191.01 131.75,191.01" speed="8.33"/>
   </edge>
   <edge function="internal" id=":2215379949_3">
      <lane disallow="tram rail_urban rail rail_electric ship" id=":2215379949_3_0" index="0" length="2.41" shape="131.75,191.01 132.82,192.05 133.07,192.94" speed="8.33"/>
   </edge>
   <edge function="internal" id=":2215379949_5">
      <lane id=":2215379949_5_0" index="0" length="2.41" shape="133.07,192.94 132.51,193.67 131.14,194.25" speed="8.33"/>
   </edge>
   <edge function="internal" id=":2215379950_0">
      <lane disallow="tram rail_urban rail rail_electric ship" id=":2215379950_0_0" index="0" length="0.10" shape="51.02,178.96 51.02,178.96" speed="8.33"/>
   </edge>
   <edge function="internal" id=":2215379950_1">
      <lane disallow="tram rail_urban rail rail_electric ship" id=":2215379950_1_0" index="0" length="2.41" shape="51.02,178.96 49.96,177.92 49.71,177.03" speed="8.33"/>
   </edge>
   <edge function="internal" id=":2215379950_4">
      <lane id=":2215379950_4_0" index="0" length="2.41" shape="49.71,177.03 50.27,176.30 51.64,175.72" speed="8.33"/>
   </edge>
   <edge function="internal" id=":2215379950_2">
      <lane disallow="tram rail_urban rail rail_electric ship" id=":2215379950_2_0" index="0" length="0.10" shape="51.64,175.72 51.64,175.72" speed="8.33"/>
   </edge>
   <edge function="internal" id=":2215379950_3">
      <lane disallow="tram rail_urban rail rail_electric ship" id=":2215379950_3_0" index="0" length="2.41" shape="51.64,175.72 52.70,176.76 52.95,177.65" speed="8.33"/>
   </edge>
   <edge function="internal" id=":2215379950_5">
      <lane id=":2215379950_5_0" index="0" length="2.41" shape="52.95,177.65 52.39,178.38 51.02,178.96" speed="8.33"/>
   </edge>
   <edge function="internal" id=":2215379952_0">
      <lane disallow="tram rail_urban rail rail_electric ship" id=":2215379952_0_0" index="0" length="0.10" shape="110.22,18.44 110.22,18.44" speed="13.89"/>
   </edge>
   <edge function="internal" id=":2215379952_1">
      <lane disallow="tram rail_urban rail rail_electric ship" id=":2215379952_1_0" index="0" length="2.41" shape="110.22,18.44 109.16,17.40 108.91,16.51" speed="13.89"/>
   </edge>
   <edge function="internal" id=":2215379952_4">
      <lane id=":2215379952_4_0" index="0" length="2.41" shape="108.91,16.51 109.47,15.78 110.84,15.20" speed="13.89"/>
   </edge>
   <edge function="internal" id=":2215379952_2">
      <lane disallow="tram rail_urban rail rail_electric ship" id=":2215379952_2_0" index="0" length="0.10" shape="110.84,15.20 110.84,15.20" speed="13.89"/>
   </edge>
   <edge function="internal" id=":2215379952_3">
      <lane disallow="tram rail_urban rail rail_electric ship" id=":2215379952_3_0" index="0" length="2.41" shape="110.84,15.20 111.90,16.24 112.15,17.13" speed="13.89"/>
   </edge>
   <edge function="internal" id=":2215379952_5">
      <lane id=":2215379952_5_0" index="0" length="2.41" shape="112.15,17.13 111.59,17.86 110.22,18.44" speed="13.89"/>
   </edge>
   <edge function="internal" id=":2215379954_0">
      <lane disallow="tram rail_urban rail rail_electric ship" id=":2215379954_0_0" index="0" length="0.10" shape="53.52,51.67 53.52,51.67" speed="8.33"/>
   </edge>
   <edge function="internal" id=":2215379958_0">
      <lane disallow="tram rail_urban rail rail_electric ship" id=":2215379958_0_0" index="0" length="0.10" shape="81.34,184.75 81.34,184.75" speed="8.33"/>
   </edge>
   <edge function="internal" id=":2215379958_1">
      <lane disallow="tram rail_urban rail rail_electric ship" id=":2215379958_1_0" index="0" length="2.41" shape="81.34,184.75 80.28,183.71 80.03,182.82" speed="8.33"/>
   </edge>
   <edge function="internal" id=":2215379958_4">
      <lane id=":2215379958_4_0" index="0" length="2.41" shape="80.03,182.82 80.59,182.09 81.96,181.51" speed="8.33"/>
   </edge>
   <edge function="internal" id=":2215379958_2">
      <lane disallow="tram rail_urban rail rail_electric ship" id=":2215379958_2_0" index="0" length="0.10" shape="81.96,181.51 81.96,181.51" speed="8.33"/>
   </edge>
   <edge function="internal" id=":2215379958_3">
      <lane disallow="tram rail_urban rail rail_electric ship" id=":2215379958_3_0" index="0" length="2.41" shape="81.96,181.51 83.02,182.55 83.27,183.44" speed="8.33"/>
   </edge>
   <edge function="internal" id=":2215379958_5">
      <lane id=":2215379958_5_0" index="0" length="2.41" shape="83.27,183.44 82.71,184.17 81.34,184.75" speed="8.33"/>
   </edge>
   <edge function="internal" id=":2215379962_0">
      <lane disallow="tram rail_urban rail rail_electric ship" id=":2215379962_0_0" index="0" length="0.10" shape="83.12,13.27 83.12,13.27" speed="13.89"/>
   </edge>
   <edge function="internal" id=":2215379962_1">
      <lane disallow="tram rail_urban rail rail_electric ship" id=":2215379962_1_0" index="0" length="2.41" shape="83.12,13.27 82.06,12.22 81.81,11.34" speed="13.89"/>
   </edge>
   <edge function="internal" id=":2215379962_4">
      <lane id=":2215379962_4_0" index="0" length="2.41" shape="81.81,11.34 82.37,10.60 83.74,10.02" speed="13.89"/>
   </edge>
   <edge function="internal" id=":2215379962_2">
      <lane disallow="tram rail_urban rail rail_electric ship" id=":2215379962_2_0" index="0" length="0.10" shape="83.74,10.02 83.74,10.02" speed="13.89"/>
   </edge>
   <edge function="internal" id=":2215379962_3">
      <lane disallow="tram rail_urban rail rail_electric ship" id=":2215379962_3_0" index="0" length="2.41" shape="83.74,10.02 84.80,11.07 85.05,11.95" speed="13.89"/>
   </edge>
   <edge function="internal" id=":2215379962_5">
      <lane id=":2215379962_5_0" index="0" length="2.41" shape="85.05,11.95 84.49,12.69 83.12,13.27" speed="13.89"/>
   </edge>
   <edge function="internal" id=":2215379963_0">
      <lane allow="delivery bicycle pedestrian" id=":2215379963_0_0" index="0" length="4.82" shape="230.15,153.74 229.08,152.71 228.81,151.83 229.36,151.09 230.73,150.49" speed="5.56"/>
   </edge>