<?xml version="1.0" encoding="utf-8"?><!-- generated on 10/11/17 17:53:51 by SUMO netconvert Version 0.25.0
<?xml version="1.0" encoding="UTF-8"?>

<configuration xmlns:xsi="http://www.w3.org/2001/XMLSchema-instance" xsi:noNamespaceSchemaLocation="http://sumo.dlr.de/xsd/netconvertConfiguration.xsd">

    <input>
        <type-files value="osmNetconvert.typ.xml"/>
        <osm-files value="HH_Altstadt_historical_800.osm"/>
    </input>

    <output>
        <output-file value="HH_Altstadt_historical_800.net.xml"/>
    </output>

    <projection>
        <proj.utm value="true"/>
    </projection>

    <edge_removal>
        <remove-edges.by-type value="highway.track,highway.unsurfaced,highway.raceway,highway.bridleway,highway.path,highway.footway,highway.pedestrian,highway.cycleway,highway.step,highway.steps,highway.stairs,highway.bus_guideway,highway.ford,railway.rail,railway.tram,railway.light_rail,railway.subway,railway.preserved,railway.narrow_gauge,railway.monorail,railway.funicular"/>
    </edge_removal>

</configuration>
-->
<net version="0.25">
   <location convBoundary="0.00,0.00,752.77,743.08" netOffset="-565048.69,-5933719.91" origBoundary="9.981919,53.548306,9.993298,53.554994" projParameter="+proj=utm +zone=32 +ellps=WGS84 +datum=WGS84 +units=m +no_defs"/>
   <type allow="pedestrian" id="highway.bridleway" numLanes="1" oneway="1" priority="1" speed="2.78" width="2.00"/>
   <type allow="bus" id="highway.bus_guideway" numLanes="1" oneway="1" priority="1" speed="8.33"/>
   <type allow="bicycle" id="highway.cycleway" numLanes="1" oneway="0" priority="1" speed="5.56" width="1.00"/>
   <type allow="pedestrian" id="highway.footway" numLanes="1" oneway="1" priority="1" speed="8.33" width="2.00"/>
   <type allow="army" id="highway.ford" numLanes="1" oneway="0" priority="1" speed="2.78"/>
   <type disallow="tram rail_urban rail rail_electric ship" id="highway.living_street" numLanes="1" oneway="0" priority="3" speed="2.78"/>
   <type allow="private emergency authority army vip passenger hov taxi bus coach delivery truck trailer motorcycle evehicle custom1 custom2" id="highway.motorway" numLanes="2" oneway="1" priority="13" speed="44.44"/>
   <type allow="private emergency authority army vip passenger hov taxi bus coach delivery truck trailer motorcycle evehicle custom1 custom2" id="highway.motorway_link" numLanes="1" oneway="1" priority="12" speed="22.22"/>
   <type allow="bicycle pedestrian" id="highway.path" numLanes="1" oneway="1" priority="1" speed="2.78" width="2.00"/>
   <type allow="pedestrian" id="highway.pedestrian" numLanes="1" oneway="1" priority="1" speed="8.33" width="2.00"/>
   <type disallow="tram rail_urban rail rail_electric ship" id="highway.primary" numLanes="2" oneway="0" priority="9" speed="27.78"/>
   <type disallow="tram rail_urban rail rail_electric ship" id="highway.primary_link" numLanes="1" oneway="0" priority="8" speed="22.22"/>
   <type allow="vip" id="highway.raceway" numLanes="2" oneway="0" priority="14" speed="83.33"/>
   <type disallow="tram rail_urban rail rail_electric ship" id="highway.residential" numLanes="1" oneway="0" priority="4" speed="13.89"/>
   <type disallow="tram rail_urban rail rail_electric ship" id="highway.secondary" numLanes="2" oneway="0" priority="7" speed="27.78"/>
   <type disallow="tram rail_urban rail rail_electric ship" id="highway.secondary_link" numLanes="1" oneway="0" priority="6" speed="22.22"/>
   <type allow="delivery bicycle pedestrian" id="highway.service" numLanes="1" oneway="0" priority="2" speed="5.56"/>
   <type disallow="tram rail_urban rail rail_electric ship" id="highway.services" numLanes="1" oneway="0" priority="1" speed="8.33"/>
   <type allow="pedestrian" id="highway.stairs" numLanes="1" oneway="1" priority="1" speed="1.39" width="2.00"/>
   <type allow="pedestrian" id="highway.step" numLanes="1" oneway="1" priority="1" speed="1.39" width="2.00"/>
   <type allow="pedestrian" id="highway.steps" numLanes="1" oneway="1" priority="1" speed="1.39" width="2.00"/>
   <type disallow="tram rail_urban rail rail_electric ship" id="highway.tertiary" numLanes="1" oneway="0" priority="6" speed="22.22"/>
   <type disallow="tram rail_urban rail rail_electric ship" id="highway.tertiary_link" numLanes="1" oneway="0" priority="5" speed="22.22"/>
   <type disallow="tram rail_urban rail rail_electric ship" id="highway.track" numLanes="1" oneway="0" priority="1" speed="5.56"/>
   <type disallow="tram rail_urban rail rail_electric bicycle pedestrian ship" id="highway.trunk" numLanes="2" oneway="0" priority="11" speed="27.78"/>
   <type disallow="tram rail_urban rail rail_electric bicycle pedestrian ship" id="highway.trunk_link" numLanes="1" oneway="0" priority="10" speed="22.22"/>
   <type disallow="tram rail_urban rail rail_electric ship" id="highway.unclassified" numLanes="1" oneway="0" priority="5" speed="13.89"/>
   <type disallow="tram rail_urban rail rail_electric ship" id="highway.unsurfaced" numLanes="1" oneway="0" priority="1" speed="8.33"/>
   <type allow="rail_urban" id="railway.light_rail" numLanes="1" oneway="1" priority="15" speed="27.78"/>
   <type allow="rail" id="railway.preserved" numLanes="1" oneway="1" priority="15" speed="27.78"/>
   <type allow="rail rail_electric" id="railway.rail" numLanes="1" oneway="1" priority="15" speed="83.33"/>
   <type allow="rail_urban" id="railway.subway" numLanes="1" oneway="1" priority="15" speed="27.78"/>
   <type allow="tram" id="railway.tram" numLanes="1" oneway="1" priority="15" speed="13.89"/>
   <edge function="internal" id=":105290620_0">
      <lane disallow="tram rail_urban rail rail_electric ship" id=":105290620_0_0" index="0" length="5.18" shape="333.89,31.69 333.06,30.50 332.07,29.93 330.93,29.98 329.64,30.64" speed="13.89"/>
   </edge>
   <edge function="internal" id=":105290620_1">
      <lane disallow="tram rail_urban rail rail_electric ship" id=":105290620_1_0" index="0" length="9.47" shape="333.89,31.69 329.98,23.07" speed="13.89"/>
   </edge>
   <edge function="internal" id=":105290620_2">
      <lane disallow="tram rail_urban rail rail_electric ship" id=":105290620_2_0" index="0" length="5.82" shape="327.73,27.95 329.10,26.77 329.93,25.57 330.22,24.34 329.98,23.07" speed="13.89"/>
   </edge>
   <edge function="internal" id=":105290620_3">
      <lane disallow="tram rail_urban rail rail_electric ship" id=":105290620_3_0" index="0" length="4.82" shape="327.73,27.95 329.22,27.90 330.03,28.34 330.17,29.25 329.64,30.64" speed="13.89"/>
   </edge>
   <edge function="internal" id=":105290629_0">
      <lane disallow="tram rail_urban rail rail_electric ship" id=":105290629_0_0" index="0" length="0.10" shape="253.36,93.77 253.35,93.77" speed="13.89"/>
   </edge>
   <edge function="internal" id=":105290629_1">
      <lane disallow="tram rail_urban rail rail_electric ship" id=":105290629_1_0" index="0" length="2.41" shape="253.36,93.77 251.90,93.48 251.20,92.88" speed="13.89"/>
   </edge>
   <edge function="internal" id=":105290629_4">
      <lane id=":105290629_4_0" index="0" length="2.41" shape="251.20,92.88 251.26,91.96 252.09,90.72" speed="13.89"/>
   </edge>
   <edge function="internal" id=":105290629_2">
      <lane disallow="tram rail_urban rail rail_electric ship" id=":105290629_2_0" index="0" length="0.10" shape="252.10,90.72 252.09,90.72" speed="13.89"/>
   </edge>
   <edge function="internal" id=":105290629_3">
      <lane disallow="tram rail_urban rail rail_electric ship" id=":105290629_3_0" index="0" length="2.41" shape="252.10,90.72 253.56,91.02 254.25,91.62" speed="13.89"/>
   </edge>
   <edge function="internal" id=":105290629_5">
      <lane id=":105290629_5_0" index="0" length="2.41" shape="254.25,91.62 254.18,92.54 253.35,93.77" speed="13.89"/>
   </edge>
   <edge function="internal" id=":105292874_0">
      <lane disallow="tram rail_urban rail rail_electric ship" id=":105292874_0_0" index="0" length="8.02" shape="48.54,102.92 40.61,101.75" speed="8.33"/>
   </edge>
   <edge function="internal" id=":105292874_1">
      <lane allow="delivery bicycle pedestrian" id=":105292874_1_0" index="0" length="4.22" shape="48.54,102.92 46.00,101.76 45.03,100.72" speed="6.95"/>
   </edge>
   <edge function="internal" id=":105292874_2">
      <lane disallow="tram rail_urban rail rail_electric ship" id=":105292874_2_0" index="0" length="2.20" shape="48.54,102.92 47.59,101.78 47.46,101.08" speed="8.33"/>
   </edge>
   <edge function="internal" id=":105292874_9">
      <lane id=":105292874_9_0" index="0" length="5.99" shape="45.03,100.72 44.42,100.07 43.80,97.84 44.14,95.07" speed="6.95"/>
   </edge>
   <edge function="internal" id=":105292874_10">
      <lane id=":105292874_10_0" index="0" length="2.62" shape="47.46,101.08 47.42,100.87 48.05,100.20 49.47,99.75" speed="8.33"/>
   </edge>
   <edge function="internal" id=":105292874_3">
      <lane disallow="tram rail_urban rail rail_electric ship" id=":105292874_3_0" index="0" length="4.97" shape="47.33,95.93 47.16,97.28 47.47,98.37 48.24,99.19 49.47,99.75" speed="6.95"/>
   </edge>
   <edge function="internal" id=":105292874_4">
      <lane disallow="tram rail_urban rail rail_electric ship" id=":105292874_4_0" index="0" length="9.61" shape="47.33,95.93 46.33,98.44 44.88,100.24 42.97,101.34 40.61,101.75" speed="6.95"/>
   </edge>
   <edge function="internal" id=":105292874_5">
      <lane allow="delivery bicycle pedestrian" id=":105292874_5_0" index="0" length="4.82" shape="47.33,95.93 46.21,96.91 45.31,97.09 44.62,96.48 44.14,95.07" speed="5.56"/>
   </edge>
   <edge function="internal" id=":105292874_6">
      <lane allow="delivery bicycle pedestrian" id=":105292874_6_0" index="0" length="5.33" shape="40.55,98.45 41.78,98.21 42.80,97.58 43.58,96.53 44.14,95.07" speed="6.95"/>
   </edge>
   <edge function="internal" id=":105292874_7">
      <lane disallow="tram rail_urban rail rail_electric ship" id=":105292874_7_0" index="0" length="9.02" shape="40.55,98.45 49.47,99.75" speed="8.33"/>
   </edge>
   <edge function="internal" id=":105292874_8">
      <lane disallow="tram rail_urban rail rail_electric ship" id=":105292874_8_0" index="0" length="2.72" shape="40.55,98.45 41.80,99.25 42.23,100.06 42.09,100.35" speed="8.33"/>
   </edge>
   <edge function="internal" id=":105292874_11">
      <lane id=":105292874_11_0" index="0" length="2.10" shape="42.09,100.35 41.83,100.90 40.61,101.75" speed="8.33"/>
   </edge>
   <edge function="internal" id=":1217197749_0">
      <lane disallow="tram rail_urban rail rail_electric ship" id=":1217197749_0_0" index="0" length="0.39" shape="84.05,113.31 83.67,113.22" speed="8.33"/>
   </edge>
   <edge function="internal" id=":1217197749_1">
      <lane disallow="tram rail_urban rail rail_electric ship" id=":1217197749_1_0" index="0" length="2.41" shape="84.05,113.31 83.01,112.25 82.77,111.36" speed="8.33"/>
   </edge>
   <edge function="internal" id=":1217197749_4">
      <lane id=":1217197749_4_0" index="0" length="2.41" shape="82.77,111.36 83.34,110.64 84.72,110.08" speed="8.33"/>
   </edge>
   <edge function="internal" id=":1217197749_2">
      <lane disallow="tram rail_urban rail rail_electric ship" id=":1217197749_2_0" index="0" length="0.13" shape="84.60,110.05 84.72,110.08" speed="8.33"/>
   </edge>
   <edge function="internal" id=":1217197749_3">
      <lane disallow="tram rail_urban rail rail_electric ship" id=":1217197749_3_0" index="0" length="2.41" shape="84.60,110.05 85.56,111.19 85.72,112.10" speed="8.33"/>
   </edge>
   <edge function="internal" id=":1217197749_5">
      <lane id=":1217197749_5_0" index="0" length="2.41" shape="85.72,112.10 85.09,112.77 83.67,113.22" speed="8.33"/>
   </edge>
   <edge function="internal" id=":1341075324_0">
      <lane disallow="tram rail_urban rail rail_electric ship" id=":1341075324_0_0" index="0" length="1.81" shape="162.96,220.34 162.28,218.66" speed="13.89"/>
   </edge>
   <edge function="internal" id=":1341075324_1">
      <lane disallow="tram rail_urban rail rail_electric ship" id=":1341075324_1_0" index="0" length="2.41" shape="162.96,220.34 162.98,218.85 163.45,218.06" speed="13.89"/>
   </edge>
   <edge function="internal" id=":1341075324_4">
      <lane id=":1341075324_4_0" index="0" length="2.41" shape="163.45,218.06 164.37,217.96 165.73,218.56" speed="13.89"/>
   </edge>
   <edge function="internal" id=":1341075324_2">
      <lane disallow="tram rail_urban rail rail_electric ship" id=":1341075324_2_0" index="0" length="0.59" shape="165.51,218.01 165.73,218.56" speed="13.89"/>
   </edge>
   <edge function="internal" id=":1341075324_3">
      <lane disallow="tram rail_urban rail rail_electric ship" id=":1341075324_3_0" index="0" length="2.41" shape="165.51,218.01 164.95,219.38 164.22,219.95" speed="13.89"/>
   </edge>
   <edge function="internal" id=":1341075324_5">
      <lane id=":1341075324_5_0" index="0" length="2.41" shape="164.22,219.95 163.33,219.71 162.28,218.66" speed="13.89"/>
   </edge>
   <edge function="internal" id=":1341075326_0">
      <lane allow="delivery bicycle pedestrian" id=":1341075326_0_0" index="0" length="4.82" shape="139.85,234.22 141.06,235.08 141.45,235.92 141.01,236.73 139.75,237.52" speed="5.56"/>
   </edge>
   <edge function="internal" id=":1360435386_0">
      <lane allow="delivery bicycle pedestrian" id=":1360435386_0_0" index="0" length="0.10" shape="264.67,217.63 264.73,217.64" speed="5.56"/>
   </edge>
   <edge function="internal" id=":1360435386_1">
      <lane allow="delivery bicycle pedestrian" id=":1360435386_1_0" index="0" length="2.95" shape="264.67,217.63 264.28,215.85 264.62,214.78" speed="5.56"/>
   </edge>
   <edge function="internal" id=":1360435386_4">
      <lane id=":1360435386_4_0" index="0" length="2.95" shape="264.62,214.78 265.68,214.40 267.47,214.72" speed="5.56"/>
   </edge>
   <edge function="internal" id=":1360435386_2">
      <lane allow="delivery bicycle pedestrian" id=":1360435386_2_0" index="0" length="2.36" shape="265.14,214.37 267.47,214.72" speed="5.56"/>
   </edge>
   <edge function="internal" id=":1360435386_3">
      <lane allow="delivery bicycle pedestrian" id=":1360435386_3_0" index="0" length="2.41" shape="265.14,214.37 266.27,215.34 266.57,216.21" speed="5.56"/>
   </edge>
   <edge function="internal" id=":1360435386_5">
      <lane id=":1360435386_5_0" index="0" length="2.41" shape="266.57,216.21 266.06,216.98 264.73,217.64" speed="5.56"/>
   </edge>
   <edge function="internal" id=":13804879_0">
      <lane disallow="tram rail_urban rail rail_electric ship" id=":13804879_0_0" index="0" length="7.28" shape="393.51,443.61 392.17,443.10 390.71,443.36 389.14,444.40 387.46,446.22" speed="5.56"/>
   </edge>
   <edge function="internal" id=":13804879_1">
      <lane disallow="tram rail_urban rail rail_electric ship" id=":13804879_1_0" index="0" length="7.51" shape="393.51,443.61 386.16,442.08" speed="9.72"/>
   </edge>
   <edge function="internal" id=":13804879_2">
      <lane disallow="tram rail_urban rail rail_electric ship" id=":13804879_2_0" index="0" length="3.22" shape="393.51,443.61 392.55,442.60 392.23,441.38 392.35,440.83" speed="5.56"/>
   </edge>
   <edge function="internal" id=":13804879_6">
      <lane id=":13804879_6_0" index="0" length="2.84" shape="392.35,440.83 392.56,439.94 393.54,438.29" speed="5.56"/>
   </edge>
   <edge function="internal" id=":13804879_3">
      <lane disallow="tram rail_urban rail rail_electric ship" id=":13804879_3_0" index="0" length="6.83" shape="387.12,438.92 389.34,439.44 391.15,439.50 392.55,439.12 393.54,438.29" speed="9.72"/>
   </edge>
   <edge function="internal" id=":13804879_4">
      <lane disallow="tram rail_urban rail rail_electric ship" id=":13804879_4_0" index="0" length="3.43" shape="387.12,438.92 388.98,439.94 389.51,441.14" speed="9.72"/>
   </edge>
   <edge function="internal" id=":13804879_5">
      <lane disallow="tram rail_urban rail rail_electric ship" id=":13804879_5_0" index="0" length="2.30" shape="387.12,438.92 388.07,440.07 388.20,440.87" speed="13.89"/>
   </edge>
   <edge function="internal" id=":13804879_7">
      <lane id=":13804879_7_0" index="0" length="5.66" shape="389.51,441.14 389.66,441.49 389.15,443.59 387.46,446.22" speed="9.72"/>
   </edge>
   <edge function="internal" id=":13804879_8">
      <lane id=":13804879_8_0" index="0" length="2.52" shape="388.20,440.87 388.22,440.98 387.59,441.65 386.16,442.08" speed="13.89"/>
   </edge>
   <edge function="internal" id=":13804884_0">
      <lane disallow="tram rail_urban rail rail_electric ship" id=":13804884_0_0" index="0" length="0.10" shape="507.30,282.15 507.30,282.16" speed="13.89"/>
   </edge>
   <edge function="internal" id=":13804885_0">
      <lane disallow="tram rail_urban rail rail_electric ship" id=":13804885_0_0" index="0" length="5.06" shape="483.12,308.05 484.34,308.68 485.48,308.79 486.55,308.35 487.55,307.39" speed="9.72"/>
   </edge>
   <edge function="internal" id=":13804885_1">
      <lane disallow="tram rail_urban rail rail_electric ship" id=":13804885_1_0" index="0" length="6.22" shape="483.12,308.05 488.13,311.74" speed="5.56"/>
   </edge>
   <edge function="internal" id=":13804885_2">
      <lane disallow="tram rail_urban rail rail_electric ship" id=":13804885_2_0" index="0" length="6.28" shape="483.80,312.42 487.55,307.39" speed="9.72"/>
   </edge>
   <edge function="internal" id=":13804885_3">
      <lane disallow="tram rail_urban rail rail_electric ship" id=":13804885_3_0" index="0" length="5.03" shape="483.80,312.42 484.75,311.42 485.79,310.97 486.92,311.08 488.13,311.74" speed="5.56"/>
   </edge>
   <edge function="internal" id=":1395884047_0">
      <lane disallow="tram rail_urban rail rail_electric ship" id=":1395884047_0_0" index="0" length="0.10" shape="748.85,515.02 748.88,514.99" speed="13.89"/>
   </edge>
   <edge function="internal" id=":1395884047_1">
      <lane disallow="tram rail_urban rail rail_electric ship" id=":1395884047_1_0" index="0" length="2.41" shape="748.85,515.02 747.38,515.28 746.51,514.97" speed="13.89"/>
   </edge>
   <edge function="internal" id=":1395884047_4">
      <lane id=":1395884047_4_0" index="0" length="2.41" shape="746.51,514.97 746.24,514.09 746.56,512.64" speed="13.89"/>
   </edge>
   <edge function="internal" id=":1395884047_2">
      <lane disallow="tram rail_urban rail rail_electric ship" id=":1395884047_2_0" index="0" length="0.10" shape="746.55,512.65 746.56,512.64" speed="13.89"/>
   </edge>
   <edge function="internal" id=":1395884047_3">
      <lane disallow="tram rail_urban rail rail_electric ship" id=":1395884047_3_0" index="0" length="2.41" shape="746.55,512.65 748.01,512.36 748.88,512.66" speed="13.89"/>
   </edge>
   <edge function="internal" id=":1395884047_5">
      <lane id=":1395884047_5_0" index="0" length="2.41" shape="748.88,512.66 749.17,513.53 748.88,514.99" speed="13.89"/>
   </edge>
   <edge function="internal" id=":1412965777_0">
      <lane disallow="tram rail_urban rail rail_electric ship" id=":1412965777_0_0" index="0" length="0.10" shape="439.63,125.98 439.63,125.98" speed="13.89"/>
   </edge>
   <edge function="internal" id=":141315956_0">
      <lane disallow="tram rail_urban rail rail_electric ship" id=":141315956_0_0" index="0" length="10.82" shape="749.99,504.40 751.97,506.67 752.67,508.96 752.10,511.30 750.25,513.67" speed="9.72"/>
   </edge>
   <edge function="internal" id=":141315956_1">
      <lane disallow="tram rail_urban rail rail_electric ship" id=":141315956_1_0" index="0" length="4.82" shape="747.97,511.29 749.43,511.03 750.30,511.34 750.57,512.22 750.25,513.67" speed="13.89"/>
   </edge>
   <edge function="internal" id=":141316000_0">
      <lane disallow="tram rail_urban rail rail_electric ship" id=":141316000_0_0" index="0" length="0.48" shape="297.61,172.49 298.04,172.70" speed="5.56"/>
   </edge>
   <edge function="internal" id=":1459757505_0">
      <lane disallow="tram rail_urban rail rail_electric ship" id=":1459757505_0_0" index="0" length="4.65" shape="350.26,79.87 345.67,80.68" speed="13.89"/>
   </edge>
   <edge function="internal" id=":1459757505_1">
      <lane disallow="tram rail_urban rail rail_electric ship" id=":1459757505_1_0" index="0" length="7.68" shape="342.97,78.79 339.46,71.75" speed="13.89"/>
      <lane disallow="tram rail_urban rail rail_electric ship" id=":1459757505_1_1" index="1" length="7.68" shape="342.97,78.79 343.18,71.31" speed="13.89"/>
   </edge>
   <edge function="internal" id=":1459757505_3">
      <lane disallow="tram rail_urban rail rail_electric ship" id=":1459757505_3_0" index="0" length="8.00" shape="342.97,78.79 346.63,72.00" speed="13.89"/>
      <lane disallow="tram rail_urban rail rail_electric ship" id=":1459757505_3_1" index="1" length="8.00" shape="342.97,78.79 349.48,73.66" speed="13.89"/>
   </edge>
   <edge function="internal" id=":1459757505_5">
      <lane disallow="tram rail_urban rail rail_electric ship" id=":1459757505_5_0" index="0" length="3.18" shape="342.97,78.79 344.35,78.25 345.26,78.38 345.63,79.06" speed="13.89"/>
   </edge>
   <edge function="internal" id=":1459757505_6">
      <lane id=":1459757505_6_0" index="0" length="1.64" shape="345.63,79.06 345.70,79.20 345.67,80.68" speed="13.89"/>
   </edge>
   <edge function="internal" id=":1466952709_0">
      <lane disallow="tram rail_urban rail rail_electric ship" id=":1466952709_0_0" index="0" length="0.10" shape="218.46,442.91 218.46,442.91" speed="13.89"/>
   </edge>
   <edge function="internal" id=":1561370948_0">
      <lane disallow="tram rail_urban rail rail_electric ship" id=":1561370948_0_0" index="0" length="0.10" shape="332.74,99.19 332.74,99.20" speed="13.89"/>
   </edge>
   <edge function="internal" id=":1561370948_1">
      <lane disallow="tram rail_urban rail rail_electric ship" id=":1561370948_1_0" index="0" length="2.41" shape="332.74,99.19 331.34,99.67 330.43,99.50" speed="13.89"/>
   </edge>
   <edge function="internal" id=":1561370948_4">
      <lane id=":1561370948_4_0" index="0" length="2.41" shape="330.43,99.50 330.02,98.68 330.11,97.19" speed="13.89"/>
   </edge>
   <edge function="internal" id=":1561370948_2">
      <lane disallow="tram rail_urban rail rail_electric ship" id=":1561370948_2_0" index="0" length="0.14" shape="330.03,97.31 330.11,97.19" speed="13.89"/>
   </edge>
   <edge function="internal" id=":1561370948_3">
      <lane disallow="tram rail_urban rail rail_electric ship" id=":1561370948_3_0" index="0" length="2.41" shape="330.03,97.31 331.41,96.76 332.33,96.90" speed="13.89"/>
   </edge>
   <edge function="internal" id=":1561370948_5">
      <lane id=":1561370948_5_0" index="0" length="2.41" shape="332.33,96.90 332.77,97.71 332.74,99.20" speed="13.89"/>
   </edge>
   <edge function="internal" id=":1561370956_0">
      <lane disallow="tram rail_urban rail rail_electric ship" id=":1561370956_0_0" index="0" length="0.12" shape="304.87,135.91 304.81,136.01" speed="13.89"/>
   </edge>
   <edge function="internal" id=":1561370956_1">
      <lane disallow="tram rail_urban rail rail_electric ship" id=":1561370956_1_0" index="0" length="2.41" shape="304.87,135.91 303.47,136.40 302.56,136.23" speed="13.89"/>
   </edge>
   <edge function="internal" id=":1561370956_4">
      <lane id=":1561370956_4_0" index="0" length="2.41" shape="302.56,136.23 302.15,135.40 302.25,133.92" speed="13.89"/>
   </edge>
   <edge function="internal" id=":1561370956_2">
      <lane disallow="tram rail_urban rail rail_electric ship" id=":1561370956_2_0" index="0" length="0.35" shape="302.04,134.21 302.25,133.92" speed="13.89"/>
   </edge>
   <edge function="internal" id=":1561370956_3">
      <lane disallow="tram rail_urban rail rail_electric ship" id=":1561370956_3_0" index="0" length="2.41" shape="302.04,134.21 303.41,133.62 304.32,133.72" speed="13.89"/>
   </edge>
   <edge function="internal" id=":1561370956_5">
      <lane id=":1561370956_5_0" index="0" length="2.41" shape="304.32,133.72 304.79,134.52 304.81,136.01" speed="13.89"/>
   </edge>
   <edge function="internal" id=":1561370958_0">
      <lane disallow="tram rail_urban rail rail_electric ship" id=":1561370958_0_0" index="0" length="0.10" shape="533.64,245.86 533.64,245.87" speed="13.89"/>
   </edge>
   <edge function="internal" id=":1561370960_0">
      <lane disallow="tram rail_urban rail rail_electric ship" id=":1561370960_0_0" index="0" length="0.10" shape="512.25,275.52 512.25,275.52" speed="13.89"/>
   </edge>
   <edge function="internal" id=":1561370961_0">
      <lane disallow="tram rail_urban rail rail_electric ship" id=":1561370961_0_0" index="0" length="0.10" shape="259.31,292.94 259.31,292.94" speed="13.89"/>
      <lane disallow="tram rail_urban rail rail_electric ship" id=":1561370961_0_1" index="1" length="0.10" shape="262.60,293.19 262.60,293.22" speed="13.89"/>
   </edge>
   <edge function="internal" id=":1561370962_0">
      <lane disallow="tram rail_urban rail rail_electric ship" id=":1561370962_0_0" index="0" length="0.10" shape="457.81,349.23 457.81,349.23" speed="5.56"/>
   </edge>
   <edge function="internal" id=":1561370970_0">
      <lane disallow="tram rail_urban rail rail_electric ship" id=":1561370970_0_0" index="0" length="3.23" shape="84.51,350.72 82.48,348.21" speed="8.33"/>
   </edge>
   <edge function="internal" id=":1561370970_1">
      <lane disallow="tram rail_urban rail rail_electric ship" id=":1561370970_1_0" index="0" length="4.92" shape="84.51,350.72 80.88,347.40" speed="8.33"/>
   </edge>
   <edge function="internal" id=":1561370970_2">
      <lane allow="delivery bicycle pedestrian" id=":1561370970_2_0" index="0" length="10.12" shape="84.51,350.72 82.17,349.28 80.93,347.43 80.82,345.16 81.82,342.48" speed="6.95"/>
   </edge>
   <edge function="internal" id=":1561370970_3">
      <lane disallow="tram rail_urban rail rail_electric ship" id=":1561370970_3_0" index="0" length="4.82" shape="84.51,350.72 83.69,349.48 83.64,348.56 84.34,347.96 85.80,347.68" speed="8.33"/>
   </edge>
   <edge function="internal" id=":1561370970_4">
      <lane disallow="tram rail_urban rail rail_electric ship" id=":1561370970_4_0" index="0" length="4.73" shape="77.47,350.67 80.88,347.40" speed="8.33"/>
   </edge>
   <edge function="internal" id=":1561370970_5">
      <lane allow="delivery bicycle pedestrian" id=":1561370970_5_0" index="0" length="9.28" shape="77.47,350.67 81.82,342.48" speed="6.95"/>
   </edge>
   <edge function="internal" id=":1561370970_6">
      <lane disallow="tram rail_urban rail rail_electric ship" id=":1561370970_6_0" index="0" length="9.92" shape="77.47,350.67 79.04,348.48 80.94,347.26 83.20,346.99 85.80,347.68" speed="8.33"/>
   </edge>
   <edge function="internal" id=":1561370970_7">
      <lane disallow="tram rail_urban rail rail_electric ship" id=":1561370970_7_0" index="0" length="8.15" shape="77.47,350.67 77.80,348.18 78.74,346.94 80.30,346.95 82.48,348.21" speed="8.33"/>
   </edge>
   <edge function="internal" id=":1561370987_0">
      <lane disallow="tram rail_urban rail rail_electric ship" id=":1561370987_0_0" index="0" length="6.13" shape="116.21,535.92 112.01,540.39" speed="13.89"/>
   </edge>
   <edge function="internal" id=":1561370987_1">
      <lane disallow="tram rail_urban rail rail_electric ship" id=":1561370987_1_0" index="0" length="2.41" shape="116.21,535.92 114.76,536.24 113.87,535.97" speed="13.89"/>
   </edge>
   <edge function="internal" id=":1561370987_6">
      <lane id=":1561370987_6_0" index="0" length="2.41" shape="113.87,535.97 113.56,535.10 113.82,533.63" speed="13.89"/>
   </edge>
   <edge function="internal" id=":1561370987_2">
      <lane disallow="tram rail_urban rail rail_electric ship" id=":1561370987_2_0" index="0" length="5.21" shape="109.45,533.36 110.49,534.40 111.56,534.79 112.67,534.54 113.82,533.63" speed="11.11"/>
   </edge>
   <edge function="internal" id=":1561370987_3">
      <lane disallow="tram rail_urban rail rail_electric ship" id=":1561370987_3_0" index="0" length="7.86" shape="109.45,533.36 111.12,535.83 112.11,537.83 112.40,539.34 112.01,540.39" speed="11.11"/>
   </edge>
   <edge function="internal" id=":1561370987_4">
      <lane disallow="tram rail_urban rail rail_electric ship" id=":1561370987_4_0" index="0" length="6.21" shape="109.57,538.16 113.82,533.63" speed="13.89"/>
   </edge>
   <edge function="internal" id=":1561370987_5">
      <lane disallow="tram rail_urban rail rail_electric ship" id=":1561370987_5_0" index="0" length="2.41" shape="109.57,538.16 111.02,537.80 111.90,538.05" speed="13.89"/>
   </edge>
   <edge function="internal" id=":1561370987_7">
      <lane id=":1561370987_7_0" index="0" length="2.41" shape="111.90,538.05 112.24,538.92 112.01,540.39" speed="13.89"/>
   </edge>
   <edge function="internal" id=":1561371007_0">
      <lane disallow="tram rail_urban rail rail_electric ship" id=":1561371007_0_0" index="0" length="5.61" shape="199.68,634.16 198.00,633.98 196.64,634.23 195.60,634.90 194.89,635.99" speed="13.89"/>
   </edge>
   <edge function="internal" id=":1561371007_1">
      <lane disallow="tram rail_urban rail rail_electric ship" id=":1561371007_1_0" index="0" length="4.82" shape="199.68,634.16 198.64,633.10 198.41,632.21 198.98,631.48 200.36,630.93" speed="13.89"/>
   </edge>
   <edge function="internal" id=":1561371007_2">
      <lane disallow="tram rail_urban rail rail_electric ship" id=":1561371007_2_0" index="0" length="5.13" shape="198.16,627.13 197.92,628.54 198.20,629.64 199.02,630.44 200.36,630.93" speed="13.89"/>
   </edge>
   <edge function="internal" id=":1561371007_3">
      <lane disallow="tram rail_urban rail rail_electric ship" id=":1561371007_3_0" index="0" length="9.44" shape="198.16,627.13 194.89,635.99" speed="13.89"/>
   </edge>
   <edge function="internal" id=":1561371015_0">
      <lane disallow="tram rail_urban rail rail_electric ship" id=":1561371015_0_0" index="0" length="4.82" shape="331.16,668.46 329.87,668.51 328.84,668.94 328.07,669.75 327.58,670.95" speed="9.72"/>
   </edge>
   <edge function="internal" id=":1561371015_1">