<?xml version="1.0" encoding="utf-8"?><!-- generated on 10/11/17 17:53:56 by SUMO polyconvert Version 0.25.0
<?xml version="1.0" encoding="UTF-8"?>

<configuration xmlns:xsi="http://www.w3.org/2001/XMLSchema-instance" xsi:noNamespaceSchemaLocation="http://sumo.dlr.de/xsd/polyconvertConfiguration.xsd">

    <input>
        <net-file value="HH_Altstadt_historical_800.net.xml"/>
        <osm-files value="HH_Altstadt_historical_800.osm"/>
        <type-file value="osmPolyconvert.typ.xml"/>
    </input>

    <output>
        <output-file value="HH_Altstadt_historical_800.poly.xml"/>
    </output>

    <projection>
        <proj.utm value="true"/>
    </projection>

    <processing>
        <poi-layer-offset value="5"/>
    </processing>

</configuration>
-->
<additional>
   <location convBoundary="-0.70,-1.49,760.81,748.66" netOffset="-565048.69,-5933719.91" origBoundary="9.981900,53.548303,9.993298,53.555000" projParameter="+proj=utm +zone=32 +ellps=WGS84 +datum=WGS84 +units=m +no_defs"/>
   <poly color="red" fill="1" id="105694069" layer="-1.00" shape="291.92,280.43 295.37,250.95 310.61,258.66 306.09,285.84 291.92,280.43" type="building"/>
   <poly color="181,209,209" fill="1" id="105694073" layer="-4.00" shape="326.22,144.56 458.20,237.15 497.46,264.69 502.62,268.31 501.98,273.63 503.62,274.80 524.15,245.32 520.70,243.47 513.73,238.41 493.69,223.41 377.02,144.66 378.52,142.53 371.13,137.84 374.77,132.49 366.84,126.51 388.98,97.53 390.98,99.00 391.76,98.15 378.88,88.44 351.12,125.47 340.27,117.48 332.03,111.31 319.74,99.33 303.84,72.59 291.69,52.56 282.05,37.49 283.70,36.64 269.36,12.55 260.05,-0.27 216.25,5.69 219.61,4.16 231.21,20.21 243.52,42.26 257.88,70.04 260.78,76.58 261.19,77.61 269.95,95.37 272.51,100.56 289.57,113.08 287.48,116.14 299.73,124.97 317.94,138.47 326.22,144.56" type="water"/>
   <poly color="181,209,209" fill="1" id="105694076" layer="-4.00" shape="402.25,87.39 408.21,81.42 429.29,73.05 431.19,75.27 451.49,71.63 479.18,70.91 505.15,78.07 530.22,89.42 536.17,78.74 519.79,68.89 504.70,63.36 503.16,58.01 494.44,56.70 479.30,54.15 479.61,52.73 464.24,52.38 450.07,52.66 431.19,55.35 422.61,56.95 406.87,63.82 389.51,78.19 378.88,88.44 391.76,98.15 402.25,87.39" type="water"/>
   <poly color="242,242,204" fill="0" id="11759901" layer="-3.00" shape="24.58,89.46 18.94,58.87" type="farm"/>
   <poly color="red" fill="1" id="123464015" layer="-1.00" shape="67.26,140.79 69.98,141.45 71.71,134.29 72.90,134.47 76.73,119.51 72.67,117.97 72.02,117.59 71.28,117.40 70.52,117.44 64.96,116.08 59.18,140.91 61.45,141.42 61.73,141.49 61.91,140.75 67.26,140.79" type="building"/>
   <poly color="red" fill="1" id="123588072" layer="-1.00" shape="27.63,167.59 25.59,151.22 39.45,147.96 39.60,166.41 27.63,167.59" type="building"/>
   <poly color="red" fill="1" id="123588073" layer="-1.00" shape="91.92,123.38 88.56,136.48 88.08,138.35 72.90,134.47 76.73,119.51 91.92,123.38" type="building"/>
   <poly color="181,209,209" fill="0" id="142677508" layer="-4.00" shape="695.19,648.38 696.16,649.30 672.72,674.45 670.91,673.36 669.49,673.97 625.73,719.15 633.14,732.74" type="water"/>
   <poly color="181,209,209" fill="0" id="142677526" layer="-4.00" shape="502.00,397.19 510.81,384.52 537.15,347.30 556.05,320.07 571.22,299.50" type="water"/>
   <poly color="181,209,209" fill="0" id="142944416" layer="-4.00" shape="349.82,139.59 358.81,124.91 388.80,88.98 396.38,81.36 415.15,68.36" type="water"/>
   <poly color="237,199,199" fill="1" id="142944431" layer="-1.00" shape="718.19,184.26 714.75,187.98 711.14,191.92 709.54,193.66 710.05,194.13 698.43,206.76 695.48,209.95 702.68,216.55 673.10,248.98 665.52,242.15 654.89,254.09 653.28,255.88 649.21,260.40 645.25,264.60 679.16,295.37 686.07,287.79 685.09,286.91 709.94,259.92 713.75,263.34 718.41,258.21 724.00,252.06 720.24,248.71 744.55,222.30 745.59,223.26 752.52,215.73 745.77,209.53 747.09,208.08 726.01,189.03 724.82,190.33 718.19,184.26" type="amenity"/>
   <poly color="red" fill="1" id="142944431#1" layer="-1.00" shape="718.19,184.26 714.75,187.98 711.14,191.92 709.54,193.66 710.05,194.13 698.43,206.76 695.48,209.95 702.68,216.55 673.10,248.98 665.52,242.15 654.89,254.09 653.28,255.88 649.21,260.40 645.25,264.60 679.16,295.37 686.07,287.79 685.09,286.91 709.94,259.92 713.75,263.34 718.41,258.21 724.00,252.06 720.24,248.71 744.55,222.30 745.59,223.26 752.52,215.73 745.77,209.53 747.09,208.08 726.01,189.03 724.82,190.33 718.19,184.26" type="building"/>
   <poly color="128,255,128" fill="1" id="142944431#2" layer="-1.00" shape="718.19,184.26 714.75,187.98 711.14,191.92 709.54,193.66 710.05,194.13 698.43,206.76 695.48,209.95 702.68,216.55 673.10,248.98 665.52,242.15 654.89,254.09 653.28,255.88 649.21,260.40 645.25,264.60 679.16,295.37 686.07,287.79 685.09,286.91 709.94,259.92 713.75,263.34 718.41,258.21 724.00,252.06 720.24,248.71 744.55,222.30 745.59,223.26 752.52,215.73 745.77,209.53 747.09,208.08 726.01,189.03 724.82,190.33 718.19,184.26" type="historic"/>
   <poly color="181,209,209" fill="0" id="156260653" layer="-4.00" shape="643.31,335.05 671.98,355.54 684.87,364.87" type="water"/>
   <poly color="181,209,209" fill="0" id="156260654" layer="-4.00" shape="677.28,374.91 636.96,346.29" type="water"/>
   <poly color="181,209,209" fill="0" id="156260655" layer="-4.00" shape="684.87,364.87 694.64,372.24 699.31,382.75" type="water"/>
   <poly color="181,209,209" fill="0" id="156260656" layer="-4.00" shape="636.96,346.29 626.63,339.20 619.16,327.57" type="water"/>
   <poly color="237,199,199" fill="1" id="165298188" layer="-1.00" shape="691.08,645.66 690.86,641.96 700.53,631.90 684.12,616.09 673.35,627.23 671.05,626.69 668.85,627.06 646.93,650.64 646.11,652.97 646.69,655.79 633.96,670.40 638.35,674.06 633.50,679.20 635.78,681.69 628.40,690.19 633.86,699.89 660.35,671.58 666.58,671.55 671.73,671.22 675.79,669.89 679.87,668.30 683.66,665.60 686.63,661.81 689.09,656.87 690.87,650.47 691.08,645.66" type="amenity"/>
   <poly color="red" fill="1" id="172077484" layer="-1.00" shape="275.77,391.12 293.49,397.64 299.31,381.58 285.12,376.22 285.13,367.90 276.90,367.65 275.77,391.12" type="building"/>
   <poly color="184,184,179" fill="1" id="187682244" layer="-1.00" shape="303.88,229.85 336.18,253.41 347.29,237.41 314.28,213.28 313.65,210.89 309.07,207.36 306.20,207.58 303.88,229.85" type="parking"/>
   <poly color="red" fill="0" id="188195003" layer="-1.00" shape="750.34,147.47 750.15,161.14 738.39,172.20 754.41,187.18 757.29,188.16 760.81,169.31 758.65,166.22 759.56,163.49 759.53,161.62" type="building"/>
   <poly color="red" fill="1" id="194324594" layer="-1.00" shape="654.00,85.91 659.27,89.78 667.86,81.40 662.56,76.28 654.00,85.91" type="building"/>
   <poly color="red" fill="1" id="19728889" layer="-1.00" shape="628.39,282.79 630.29,281.39 640.59,289.86 639.26,291.55 628.39,282.79" type="building"/>
   <poly color="128,255,128" fill="1" id="19728889#1" layer="-1.00" shape="628.39,282.79 630.29,281.39 640.59,289.86 639.26,291.55 628.39,282.79" type="historic"/>
   <poly color="237,199,199" fill="1" id="201132940" layer="-1.00" shape="578.63,138.78 586.09,130.43 561.97,109.00 566.20,104.26 561.27,99.88 549.58,112.98 578.63,138.78" type="amenity"/>
   <poly color="red" fill="1" id="201132940#1" layer="-1.00" shape="578.63,138.78 586.09,130.43 561.97,109.00 566.20,104.26 561.27,99.88 549.58,112.98 578.63,138.78" type="building"/>
   <poly color="red" fill="1" id="219543056" layer="-1.00" shape="232.04,697.82 232.82,691.79 243.09,694.05 241.96,700.25 232.04,697.82" type="building"/>
   <poly color="red" fill="1" id="219543057" layer="-1.00" shape="304.89,689.58 303.48,695.79 311.57,697.63 312.99,691.42 304.89,689.58" type="building"/>
   <poly color="red" fill="1" id="219543058" layer="-1.00" shape="303.48,695.79 300.98,706.76 309.07,708.60 311.57,697.63 303.48,695.79" type="building"/>
   <poly color="red" fill="1" id="219627097" layer="-1.00" shape="344.68,663.85 360.41,669.25 364.47,666.34 362.41,652.21 355.82,652.09 347.96,649.81 347.43,651.84 344.68,663.85" type="building"/>
   <poly color="140,196,107" fill="1" id="219627696" layer="-4.00" shape="300.04,432.58 303.76,431.52 305.66,428.34 303.47,425.72 288.58,421.33 277.11,419.44 270.57,418.25 265.49,419.15 263.86,420.99 269.01,423.90 271.88,422.08 296.64,428.46 296.91,433.50 300.04,432.58" type="natural"/>
   <poly color="140,196,107" fill="1" id="219627697" layer="-4.00" shape="357.80,533.39 356.44,530.85 354.70,529.86 352.60,529.66 350.50,530.59 349.69,531.89 348.79,533.97 351.57,535.13 356.93,564.42 355.42,565.79 355.98,569.81 356.99,572.62 359.33,573.96 361.52,574.08 363.02,572.70 364.26,571.41 364.66,568.28 360.52,570.14 353.46,537.43 357.80,533.39" type="natural"/>
   <poly color="184,184,179" fill="1" id="219627698" layer="-1.00" shape="348.79,533.97 351.57,535.13 356.93,564.42 355.42,565.79 348.79,533.97" type="parking"/>
   <poly color="184,184,179" fill="1" id="219627699" layer="-1.00" shape="357.80,533.39 353.46,537.43 360.52,570.14 364.66,568.28 357.80,533.39" type="parking"/>
   <poly color="184,184,179" fill="1" id="219627700" layer="-1.00" shape="296.64,428.46 296.91,433.50 269.01,423.90 271.88,422.08 296.64,428.46" type="parking"/>
   <poly color="red" fill="1" id="219628524" layer="-1.00" shape="541.49,605.11 534.22,611.69 545.00,623.50 551.80,630.05 554.51,627.53 552.86,626.05 557.50,621.16 541.49,605.11" type="building"/>
   <poly color="red" fill="1" id="219628525" layer="-1.00" shape="525.22,647.89 527.22,650.21 529.87,653.57 543.19,672.19 544.57,671.01 545.76,672.23 557.67,660.37 550.86,653.19 551.33,652.73 540.67,638.40 525.22,647.89" type="building"/>
   <poly color="red" fill="1" id="219628526" layer="-1.00" shape="538.83,628.39 545.00,623.50 534.22,611.69 530.94,608.10 533.37,605.46 528.89,601.58 532.97,596.57 530.97,594.09 520.53,583.33 509.21,599.66 523.21,609.97 524.77,607.89 527.70,610.50 525.74,613.91 527.60,617.57 533.16,623.36 538.83,628.39" type="building"/>
   <poly color="red" fill="1" id="219637074" layer="-1.00" shape="469.83,679.37 483.45,682.78 485.35,674.15 485.66,662.53 484.03,650.39 474.38,652.21 472.07,652.63 470.34,655.76 469.83,679.37" type="building"/>
   <poly color="red" fill="1" id="219735500" layer="-1.00" shape="683.24,497.81 695.50,506.92 700.94,499.63 688.68,490.52 683.24,497.81" type="building"/>
   <poly color="red" fill="1" id="219803601" layer="-1.00" shape="621.44,372.61 619.12,375.69 620.54,376.76 617.49,380.80 616.31,380.34 614.78,382.38 620.41,386.59 627.52,377.17 621.44,372.61" type="building"/>
   <poly color="red" fill="1" id="219813625" layer="-1.00" shape="383.80,210.74 379.89,208.17 382.09,204.83 386.01,207.39 383.80,210.74" type="building"/>
   <poly color="red" fill="1" id="222785113" layer="-1.00" shape="60.85,163.89 73.91,163.98 73.99,153.44 73.49,153.44 73.54,146.21 69.10,145.10 70.03,141.52 67.67,140.95 67.50,140.92 67.18,140.85 62.00,140.85 61.83,141.58 61.49,141.51 61.37,161.46 60.88,161.45 60.85,163.89" type="building"/>
   <poly color="red" fill="1" id="222785114" layer="-1.00" shape="61.08,197.21 60.97,212.83 69.12,211.75 68.80,209.33 83.82,207.32 83.51,202.35 82.20,191.80 79.59,192.16 79.84,194.05 75.23,194.67 75.02,194.69 75.06,195.00 75.26,195.00 75.71,198.89 67.84,198.85 67.60,198.78 67.54,197.25 61.08,197.21" type="building"/>
   <poly color="red" fill="0" id="222785115" layer="-1.00" shape="32.78,196.05 32.56,196.02 32.24,192.72 30.74,192.86 30.52,190.63 28.78,190.80 28.23,185.21 27.51,182.67 27.81,180.93 27.24,175.21 28.36,175.10 27.62,167.61 39.60,166.44 42.53,196.08 32.77,196.04" type="building"/>
   <poly color="red" fill="1" id="222785116" layer="-1.00" shape="73.73,181.86 73.91,163.98 60.85,163.89 60.78,166.28 61.28,166.29 61.17,181.84 61.42,181.84 73.73,181.86" type="building"/>
   <poly color="red" fill="1" id="222785117" layer="-1.00" shape="42.53,196.08 42.54,214.46 34.12,215.27 32.79,201.87 32.78,196.05 42.53,196.08" type="building"/>
   <poly color="red" fill="1" id="222785118" layer="-1.00" shape="61.17,181.84 61.42,181.84 73.73,181.86 73.66,192.79 73.16,192.79 73.14,194.99 75.06,195.00 75.26,195.00 75.71,198.89 67.84,198.85 67.60,198.78 67.54,197.25 61.08,197.21 61.17,181.84" type="building"/>
   <poly color="red" fill="1" id="22768696" layer="-1.00" shape="716.39,36.56 712.43,28.91 699.85,7.37 686.23,9.36 675.30,24.22 697.78,47.61 700.81,51.00 708.33,44.14 716.39,36.56" type="building"/>
   <poly color="128,255,128" fill="1" id="22768696#1" layer="-1.00" shape="716.39,36.56 712.43,28.91 699.85,7.37 686.23,9.36 675.30,24.22 697.78,47.61 700.81,51.00 708.33,44.14 716.39,36.56" type="historic"/>
   <poly color="181,209,209" fill="0" id="22815878" layer="-4.00" shape="589.29,455.59 502.00,397.19 325.15,284.32" type="water"/>
   <poly color="red" fill="1" id="22884083" layer="-1.00" shape="625.65,250.75 636.99,238.10 647.22,247.24 654.89,254.09 665.52,242.15 657.39,235.69 647.42,226.79 680.08,190.38 690.46,199.65 698.43,206.76 710.05,194.13 701.55,186.53 690.65,176.80 701.94,164.21 698.71,161.33 700.30,159.56 664.38,127.48 662.79,129.25 652.56,120.11 642.58,131.23 646.86,135.06 634.70,148.62 630.94,145.27 624.81,152.10 620.41,148.18 599.18,171.84 603.57,175.76 597.38,182.66 601.13,186.02 589.42,199.09 585.47,195.57 575.85,206.28 625.65,250.75" type="building"/>
   <poly color="128,255,128" fill="1" id="22884083#1" layer="-1.00" shape="625.65,250.75 636.99,238.10 647.22,247.24 654.89,254.09 665.52,242.15 657.39,235.69 647.42,226.79 680.08,190.38 690.46,199.65 698.43,206.76 710.05,194.13 701.55,186.53 690.65,176.80 701.94,164.21 698.71,161.33 700.30,159.56 664.38,127.48 662.79,129.25 652.56,120.11 642.58,131.23 646.86,135.06 634.70,148.62 630.94,145.27 624.81,152.10 620.41,148.18 599.18,171.84 603.57,175.76 597.38,182.66 601.13,186.02 589.42,199.09 585.47,195.57 575.85,206.28 625.65,250.75" type="historic"/>
   <poly color="red" fill="1" id="22884084" layer="-1.00" shape="620.89,315.07 662.04,343.58 672.00,330.34 679.22,320.75 640.59,289.86 639.26,291.55 620.89,315.07" type="building"/>
   <poly color="128,255,128" fill="1" id="22884084#1" layer="-1.00" shape="620.89,315.07 662.04,343.58 672.00,330.34 679.22,320.75 640.59,289.86 639.26,291.55 620.89,315.07" type="historic"/>
   <poly color="207,245,201" fill="1" id="22884084#2" layer="-2.00" shape="620.89,315.07 662.04,343.58 672.00,330.34 679.22,320.75 640.59,289.86 639.26,291.55 620.89,315.07" type="tourism"/>
   <poly color="237,199,199" fill="1" id="22884094" layer="-1.00" shape="649.97,652.87 654.15,656.57 653.33,657.38 653.07,658.61 653.81,659.99 660.21,666.13 664.54,668.69 670.03,669.99 675.50,669.55 679.86,667.88 683.43,665.31 686.42,661.71 688.24,657.86 689.10,653.56 688.98,649.83 688.10,646.28 685.79,641.90 678.23,634.12 676.85,633.65 675.50,633.82 674.67,634.29 670.79,630.75 649.97,652.87" type="amenity"/>
   <poly color="red" fill="1" id="22884094#1" layer="-1.00" shape="649.97,652.87 654.15,656.57 653.33,657.38 653.07,658.61 653.81,659.99 660.21,666.13 664.54,668.69 670.03,669.99 675.50,669.55 679.86,667.88 683.43,665.31 686.42,661.71 688.24,657.86 689.10,653.56 688.98,649.83 688.10,646.28 685.79,641.90 678.23,634.12 676.85,633.65 675.50,633.82 674.67,634.29 670.79,630.75 649.97,652.87" type="building"/>
   <poly color="128,255,128" fill="1" id="22884094#2" layer="-1.00" shape="649.97,652.87 654.15,656.57 653.33,657.38 653.07,658.61 653.81,659.99 660.21,666.13 664.54,668.69 670.03,669.99 675.50,669.55 679.86,667.88 683.43,665.31 686.42,661.71 688.24,657.86 689.10,653.56 688.98,649.83 688.10,646.28 685.79,641.90 678.23,634.12 676.85,633.65 675.50,633.82 674.67,634.29 670.79,630.75 649.97,652.87" type="historic"/>
   <poly color="red" fill="1" id="23227338" layer="-1.00" shape="332.03,111.31 340.27,117.48 351.12,125.47 378.88,88.44 374.30,85.31 370.94,83.82 364.38,83.25 362.12,83.74 352.15,87.41 345.09,94.47 332.03,111.31" type="building"/>
   <poly color="207,245,201" fill="0" id="24288829" layer="-2.00" shape="598.91,663.40 611.87,651.90 646.17,621.80 653.92,613.56 724.03,537.82" type="tourism"/>
   <poly color="237,199,255" fill="1" id="248808892" layer="-1.00" shape="251.13,177.93 261.78,178.65 259.31,203.36 254.84,203.25 251.51,203.17 252.17,195.58 249.60,195.47 251.13,177.93" type="shop"/>
   <poly color="237,199,199" fill="1" id="248808893" layer="-1.00" shape="222.62,177.04 233.36,172.47 229.95,164.56 223.75,167.77 223.12,166.22 222.45,164.58 225.20,162.52 226.91,160.51 227.73,158.59 228.24,156.68 228.66,156.76 228.90,154.22 225.29,153.71 225.73,150.34 209.55,147.98 222.62,177.04" type="amenity"/>
   <poly color="237,199,199" fill="1" id="249503771" layer="-1.00" shape="241.15,153.00 232.84,151.71 231.98,157.23 231.53,160.09 238.10,161.10 237.65,164.01 239.38,164.32 241.15,153.00" type="amenity"/>
   <poly color="237,199,255" fill="1" id="249503772" layer="-1.00" shape="245.80,154.03 244.14,165.19 248.90,166.10 249.36,162.42 254.95,163.01 254.42,168.92 251.95,168.72 251.50,173.94 262.24,174.81 263.16,170.06 264.17,166.58 267.19,160.81 253.54,150.58 250.54,154.88 245.80,154.03" type="shop"/>
   <poly color="237,199,199" fill="1" id="249503774" layer="-1.00" shape="239.21,186.01 246.81,203.58 241.45,205.98 243.11,209.68 240.27,210.94 238.08,211.93 228.58,190.74 239.21,186.01" type="amenity"/>
   <poly color="237,199,199" fill="1" id="249504385" layer="-1.00" shape="257.35,220.53 249.69,220.14 245.98,218.42 242.74,216.06 240.27,210.94 238.08,211.93 243.30,222.01 246.97,228.21 250.71,232.61 256.01,236.67 257.35,220.53" type="amenity"/>
   <poly color="181,209,209" fill="0" id="25388008" layer="-4.00" shape="341.49,133.58 332.54,126.62 317.49,114.94 292.25,94.20 281.34,77.26" type="water"/>
   <poly color="181,209,209" fill="0" id="25389463" layer="-4.00" shape="658.03,5.38 641.28,16.34 623.64,25.06 635.92,56.34 628.98,65.00 631.83,67.39 633.87,68.61 636.41,65.15 639.61,67.42 644.65,61.19 647.96,63.66 648.87,62.41 654.54,54.65 659.74,47.08 669.96,31.92 675.30,24.22 686.23,9.36" type="water"/>
   <poly color="181,209,209" fill="0" id="25389463#1" layer="-4.00" shape="658.03,5.38 641.28,16.34 623.64,25.06 635.92,56.34 628.98,65.00 631.83,67.39 633.87,68.61 636.41,65.15 639.61,67.42 644.65,61.19 647.96,63.66 648.87,62.41 654.54,54.65 659.74,47.08 669.96,31.92 675.30,24.22 686.23,9.36" type="water"/>
   <poly color="181,209,209" fill="0" id="25400787" layer="-4.00" shape="256.14,260.55 235.67,253.16 193.63,158.41 176.38,102.39 143.88,29.87" type="water"/>
   <poly color="red" fill="1" id="255659998" layer="-1.00" shape="713.75,263.34 709.94,259.92 703.22,253.81 713.49,242.53 720.24,248.71 724.00,252.06 718.41,258.21 713.75,263.34" type="building"/>
   <poly color="red" fill="1" id="257213939" layer="-1.00" shape="631.94,677.16 631.34,676.82 630.71,676.27 630.51,674.81 630.90,673.72 631.74,673.05 632.55,672.71 633.48,672.76 635.36,673.30 634.93,674.64 635.62,674.90 634.92,676.74 633.59,676.42 632.63,678.88 631.19,678.45 631.94,677.16" type="building"/>
   <poly color="181,209,209" fill="0" id="265408105" layer="-4.00" shape="415.15,68.36 434.91,61.99 455.56,59.08 480.16,60.32 498.11,64.07 517.11,71.11 533.89,80.81" type="water"/>
   <poly color="194,194,130" fill="1" id="265582774" layer="-3.00" shape="558.27,223.91 584.83,231.72 612.49,253.94 624.42,272.83 632.32,279.20 643.41,289.03 620.98,318.65 531.71,259.04 558.27,223.91" type="landuse"/>
   <poly color="181,209,209" fill="0" id="27402233" layer="-4.00" shape="699.31,382.75 686.25,381.79 677.28,374.91" type="water"/>
   <poly color="181,209,209" fill="1" id="27402239" layer="-4.00" shape="699.31,382.75" type="water"/>
   <poly color="237,199,199" fill="1" id="28172737" layer="-1.00" shape="171.93,720.31 172.79,718.15 187.44,679.88 199.92,684.07 198.21,687.98 209.75,693.27 216.02,701.08 209.73,715.58 199.75,718.01 197.22,716.89 196.38,719.25 191.70,717.68 190.41,721.47 186.44,720.87 186.15,722.05 185.61,723.98 171.93,720.31" type="amenity"/>
   <poly color="red" fill="1" id="28172737#1" layer="-1.00" shape="171.93,720.31 172.79,718.15 187.44,679.88 199.92,684.07 198.21,687.98 209.75,693.27 216.02,701.08 209.73,715.58 199.75,718.01 197.22,716.89 196.38,719.25 191.70,717.68 190.41,721.47 186.44,720.87 186.15,722.05 185.61,723.98 171.93,720.31" type="building"/>
   <poly color="red" fill="0" id="284404488" layer="-1.00" shape="713.91,255.62 713.81,255.64 713.67,255.73 713.61,255.88 713.62,255.98 713.70,256.13 713.85,256.21 714.02,256.18 714.15,256.07 714.19,255.90 714.14,255.75 713.99,255.64" type="building"/>
   <poly color="red" fill="1" id="284404490" layer="-1.00" shape="713.71,250.84 713.07,250.94 712.49,251.19 712.01,251.62 711.68,252.16 711.53,252.78 711.56,253.42 711.78,254.02 712.17,254.53 712.69,254.90 713.30,255.10 713.94,255.11 714.55,254.94 715.09,254.59 715.50,254.10 715.75,253.51 715.81,252.88 715.68,252.25 715.37,251.69 714.91,251.24 714.34,250.95 713.71,250.84" type="building"/>
   <poly color="red" fill="1" id="284404492" layer="-1.00" shape="713.68,251.86 713.36,251.90 713.04,252.05 712.79,252.27 712.62,252.55 712.53,252.89 712.56,253.21 712.67,253.53 712.87,253.80 713.15,254.00 713.47,254.10 713.81,254.11 714.13,254.02 714.42,253.84 714.63,253.57 714.76,253.26 714.79,252.93 714.72,252.59 714.56,252.30 714.31,252.07 714.02,251.92 713.68,251.86" type="building"/>
   <poly color="red" fill="1" id="284404493" layer="-1.00" shape="713.67,252.37 713.49,252.39 713.32,252.46 713.18,252.59 713.09,252.75 713.04,252.93 713.05,253.12 713.12,253.29 713.23,253.44 713.38,253.54 713.56,253.60 713.74,253.60 713.92,253.55 714.08,253.45 714.20,253.31 714.27,253.14 714.29,252.95 714.25,252.77 714.16,252.61 714.02,252.48 713.86,252.39 713.67,252.37" type="building"/>
   <poly color="237,199,199" fill="0" id="31048190" layer="-1.00" shape="3.03,611.71 0.84,559.48" type="amenity"/>
   <poly color="red" fill="1" id="316984280" layer="-1.00" shape="59.55,407.60 72.04,405.51 68.50,385.96 58.24,387.52 59.58,396.94 57.91,397.18 59.55,407.60" type="building"/>
   <poly color="194,194,130" fill="1" id="321027686" layer="-3.00" shape="474.91,713.54 470.31,712.06 469.25,698.93 472.11,697.90 478.31,699.05 474.91,713.54" type="landuse"/>
   <poly color="194,194,130" fill="1" id="332664523" layer="-3.00" shape="550.46,446.15 501.39,515.58 511.23,523.53 513.65,520.70 563.05,453.64 550.46,446.15" type="landuse"/>
   <poly color="194,194,130" fill="1" id="337482616" layer="-3.00" shape="732.17,166.16 740.92,158.10 745.87,163.87 737.38,171.94 732.17,166.16" type="landuse"/>
   <poly color="red" fill="1" id="34386184" layer="-1.00" shape="354.32,15.21 340.71,20.15 354.32,15.21" type="building"/>
   <poly color="194,194,130" fill="1" id="344350423" layer="-3.00" shape="741.19,157.20 740.43,146.79 749.71,146.50 749.52,160.70 746.26,163.66 741.19,157.20" type="landuse"/>
   <poly color="red" fill="1" id="350355075" layer="-1.00" shape="725.24,157.62 732.51,164.77 740.40,156.69 740.12,147.90 729.28,147.93 725.24,157.62" type="building"/>
   <poly color="red" fill="1" id="362636718" layer="-1.00" shape="696.62,364.06 695.89,365.17 699.24,367.39 699.98,366.28 696.62,364.06" type="building"/>
   <poly color="red" fill="1" id="368204901" layer="-1.00" shape="582.67,331.38 583.97,329.33 585.95,326.19 649.77,370.09 648.14,372.88 646.60,375.35 636.03,368.04 627.51,362.19 609.37,349.73 601.78,344.52 591.82,337.67 582.67,331.38" type="building"/>
   <poly color="red" fill="1" id="368204902" layer="-1.00" shape="455.08,241.57 456.65,239.36 458.20,237.15 497.46,264.69 495.99,266.90 494.16,269.63 485.31,263.29 476.65,257.08 465.62,249.53 455.08,241.57" type="building"/>
   <poly color="red" fill="0" id="368522516" layer="-1.00" shape="143.02,2.03 148.06,14.07 127.41,20.73 121.00,10.21 114.76,0.00" type="building"/>
   <poly color="237,199,199" fill="0" id="37076693" layer="-1.00" shape="629.66,734.65 631.40,733.69 633.14,732.74" type="amenity"/>
   <poly color="194,194,130" fill="0" id="380559371" layer="-3.00" shape="11.03,48.45 12.79,50.06 77.69,30.27 85.44,29.54 11.02,53.57" type="landuse"/>
   <poly color="red" fill="1" id="38063513" layer="-1.00" shape="403.42,441.47 425.34,456.31 450.18,474.76 461.15,458.85 464.74,453.63 458.00,449.01 462.15,442.99 463.16,443.68 469.41,434.62 468.82,434.21 472.55,428.80 479.87,433.82 484.38,427.26 494.93,411.97 445.23,379.14 429.05,403.56 403.01,438.41 403.42,441.47" type="building"/>
   <poly color="red" fill="1" id="38063514" layer="-1.00" shape="450.18,474.76 484.73,500.15 496.29,484.03 493.47,482.02 499.39,473.76 502.26,475.81 513.24,460.51 510.39,458.48 516.02,450.61 518.93,452.69 531.33,437.07 494.93,411.97 484.38,427.26 487.44,429.44 480.98,438.45 477.72,436.13 467.48,450.42 470.48,452.55 464.33,461.12 461.15,458.85 450.18,474.76" type="building"/>
   <poly color="red" fill="1" id="38063602" layer="-1.00" shape="597.23,472.81 636.32,503.14 647.29,490.10 607.26,459.31 597.23,472.81" type="building"/>
   <poly color="181,209,209" fill="0" id="39091085" layer="-4.00" shape="619.16,327.57 635.04,329.17 643.31,335.05" type="water"/>
   <poly color="181,209,209" fill="0" id="39091089" layer="-4.00" shape="619.16,327.57 571.22,299.50 519.18,263.88 349.82,139.59 341.49,133.58" type="water"/>
   <poly color="184,184,179" fill="1" id="39186606" layer="-1.00" shape="623.72,116.39 616.43,110.61 599.84,119.27 593.44,126.27 599.16,131.18 606.00,136.97 611.81,131.46 620.28,126.80 617.43,121.41 620.58,118.75 623.72,116.39" type="parking"/>
   <poly color="194,194,130" fill="1" id="392927336" layer="-3.00" shape="325.96,193.70 324.20,199.78 314.28,213.28 347.29,237.41 336.18,253.41 328.46,264.51 324.65,263.36 324.10,265.08 318.84,292.65 320.73,294.22 341.21,305.50 360.70,319.15 357.22,324.49 357.36,334.91 357.13,344.39 341.93,374.83 325.70,375.43 324.17,390.80 299.31,381.58 285.12,376.22 285.13,367.90 276.90,367.65 265.14,367.57 254.33,366.46 260.15,304.22 260.95,293.08 262.72,272.29 265.14,251.33 266.30,242.22 269.72,216.74 270.81,206.64 274.78,181.70 283.03,168.20 297.84,172.56 303.15,176.12 325.96,193.70" type="landuse"/>
   <poly color="181,209,209" fill="0" id="396233219" layer="-4.00" shape="639.57,351.74 633.95,359.91 608.60,342.27" type="water"/>
   <poly color="red" fill="1" id="398389833" layer="-1.00" shape="146.19,24.45 151.14,22.36 159.66,42.94 154.85,44.75 146.19,24.45" type="building"/>
   <poly color="red" fill="1" id="39878456" layer="-1.00" shape="688.13,448.94 696.71,455.59 708.07,439.79 703.05,436.20 700.70,439.47 696.92,436.77 688.13,448.94" type="building"/>
   <poly color="red" fill="1" id="39878458" layer="-1.00" shape="662.69,414.31 668.81,418.63 674.10,411.53 683.09,398.68 660.56,383.17 652.69,394.10 663.08,401.66 668.88,405.88 662.69,414.31" type="building"/>
   <poly color="red" fill="1" id="39878471" layer="-1.00" shape="661.13,429.37 669.88,435.70 678.86,423.20 674.60,420.28 678.68,414.56 674.10,411.53 668.81,418.63 661.13,429.37" type="building"/>
   <poly color="red" fill="1" id="39878472" layer="-1.00" shape="669.88,435.70 678.40,441.92 689.17,427.04 684.90,423.67 683.05,426.07 678.86,423.20 669.88,435.70" type="building"/>
   <poly color="red" fill="1" id="39878473" layer="-1.00" shape="678.40,441.92 682.78,445.08 688.13,448.94 696.92,436.77 692.19,433.36 696.53,427.37 697.44,428.01 706.45,415.57 704.57,414.20 700.55,411.31 689.17,427.04 678.40,441.92" type="building"/>
   <poly color="red" fill="1" id="39878475" layer="-1.00" shape="652.69,394.10 640.68,410.77 641.00,414.81 661.13,429.37 668.81,418.63 662.69,414.31 656.75,410.26 663.08,401.66 652.69,394.10" type="building"/>
   <poly color="red" fill="1" id="39878480" layer="-1.00" shape="689.17,427.04 700.55,411.31 691.82,404.70 682.90,417.35 687.24,420.22 684.90,423.67 689.17,427.04" type="building"/>
   <poly color="red" fill="1" id="39878486" layer="-1.00" shape="696.71,455.59 705.39,461.79 714.63,448.95 709.85,445.52 711.96,442.58 708.07,439.79 696.71,455.59" type="building"/>
   <poly color="red" fill="1" id="39878487" layer="-1.00" shape="725.39,452.67 714.26,468.14 739.97,487.43 742.14,486.86 754.98,473.39 741.22,463.47 738.95,465.53 729.79,458.84 731.22,456.62 725.39,452.67" type="building"/>
   <poly color="red" fill="1" id="39878488" layer="-1.00" shape="705.39,461.79 714.26,468.14 725.39,452.67 721.96,450.22 720.07,452.84 714.63,448.95 705.39,461.79" type="building"/>
   <poly color="red" fill="1" id="39878494" layer="-1.00" shape="625.26,431.10 609.74,451.63 621.28,460.31 626.53,453.24 637.29,440.12 625.26,431.10" type="building"/>
   <poly color="red" fill="1" id="39878516" layer="-1.00" shape="631.52,456.93 626.53,453.24 621.28,460.31 630.81,467.34 636.05,460.28 631.52,456.93" type="building"/>
   <poly color="red" fill="1" id="39878564" layer="-1.00" shape="663.79,483.97 659.54,489.41 683.17,507.25 705.94,524.49 724.14,506.00 718.59,501.32 710.77,494.75 698.29,486.29 687.82,478.56 682.96,485.13 676.90,492.15 663.79,483.97" type="building"/>
   <poly color="red" fill="1" id="39878567" layer="-1.00" shape="704.25,478.23 698.29,486.29 710.77,494.75 716.67,487.77 704.25,478.23" type="building"/>
   <poly color="red" fill="1" id="39878569" layer="-1.00" shape="716.67,487.77 710.77,494.75 718.59,501.32 725.31,493.36 719.33,488.33 718.50,489.30 716.67,487.77" type="building"/>
   <poly color="red" fill="1" id="39878583" layer="-1.00" shape="725.31,493.36 718.59,501.32 724.14,506.00 730.87,498.03 725.31,493.36" type="building"/>
   <poly color="red" fill="1" id="39878585" layer="-1.00" shape="673.69,518.11 696.47,535.30 705.94,524.49 683.17,507.25 673.69,518.11" type="building"/>
   <poly color="red" fill="1" id="39878608" layer="-1.00" shape="561.00,518.54 543.33,542.46 573.92,563.65 595.25,532.54 611.77,540.53 626.41,547.02 666.27,567.47 674.98,558.10 696.47,535.30 673.69,518.11 660.74,508.54 649.43,522.89 636.65,513.23 609.35,491.70 580.60,528.71 561.00,518.54" type="building"/>