<?xml version="1.0" encoding="utf-8"?><!-- generated on 10/11/17 17:53:59 by SUMO netconvert Version 0.25.0
<?xml version="1.0" encoding="UTF-8"?>

<configuration xmlns:xsi="http://www.w3.org/2001/XMLSchema-instance" xsi:noNamespaceSchemaLocation="http://sumo.dlr.de/xsd/netconvertConfiguration.xsd">

    <input>
        <type-files value="osmNetconvert.typ.xml"/>
        <osm-files value="HH_Iserbrook_urban_800.osm"/>
    </input>

    <output>
        <output-file value="HH_Iserbrook_urban_800.net.xml"/>
    </output>

    <projection>
        <proj.utm value="true"/>
    </projection>

    <edge_removal>
        <remove-edges.by-type value="highway.track,highway.unsurfaced,highway.raceway,highway.bridleway,highway.path,highway.footway,highway.pedestrian,highway.cycleway,highway.step,highway.steps,highway.stairs,highway.bus_guideway,highway.ford,railway.rail,railway.tram,railway.light_rail,railway.subway,railway.preserved,railway.narrow_gauge,railway.monorail,railway.funicular"/>
    </edge_removal>

</configuration>
-->
<net version="0.25">
   <location convBoundary="0.00,0.00,746.85,752.43" netOffset="-553719.44,-5936827.20" origBoundary="9.811358,53.577530,9.822660,53.584279" projParameter="+proj=utm +zone=32 +ellps=WGS84 +datum=WGS84 +units=m +no_defs"/>
   <type allow="pedestrian" id="highway.bridleway" numLanes="1" oneway="1" priority="1" speed="2.78" width="2.00"/>
   <type allow="bus" id="highway.bus_guideway" numLanes="1" oneway="1" priority="1" speed="8.33"/>
   <type allow="bicycle" id="highway.cycleway" numLanes="1" oneway="0" priority="1" speed="5.56" width="1.00"/>
   <type allow="pedestrian" id="highway.footway" numLanes="1" oneway="1" priority="1" speed="8.33" width="2.00"/>
   <type allow="army" id="highway.ford" numLanes="1" oneway="0" priority="1" speed="2.78"/>
   <type disallow="tram rail_urban rail rail_electric ship" id="highway.living_street" numLanes="1" oneway="0" priority="3" speed="2.78"/>
   <type allow="private emergency authority army vip passenger hov taxi bus coach delivery truck trailer motorcycle evehicle custom1 custom2" id="highway.motorway" numLanes="2" oneway="1" priority="13" speed="44.44"/>
   <type allow="private emergency authority army vip passenger hov taxi bus coach delivery truck trailer motorcycle evehicle custom1 custom2" id="highway.motorway_link" numLanes="1" oneway="1" priority="12" speed="22.22"/>
   <type allow="bicycle pedestrian" id="highway.path" numLanes="1" oneway="1" priority="1" speed="2.78" width="2.00"/>
   <type allow="pedestrian" id="highway.pedestrian" numLanes="1" oneway="1" priority="1" speed="8.33" width="2.00"/>
   <type disallow="tram rail_urban rail rail_electric ship" id="highway.primary" numLanes="2" oneway="0" priority="9" speed="27.78"/>
   <type disallow="tram rail_urban rail rail_electric ship" id="highway.primary_link" numLanes="1" oneway="0" priority="8" speed="22.22"/>
   <type allow="vip" id="highway.raceway" numLanes="2" oneway="0" priority="14" speed="83.33"/>
   <type disallow="tram rail_urban rail rail_electric ship" id="highway.residential" numLanes="1" oneway="0" priority="4" speed="13.89"/>
   <type disallow="tram rail_urban rail rail_electric ship" id="highway.secondary" numLanes="2" oneway="0" priority="7" speed="27.78"/>
   <type disallow="tram rail_urban rail rail_electric ship" id="highway.secondary_link" numLanes="1" oneway="0" priority="6" speed="22.22"/>
   <type allow="delivery bicycle pedestrian" id="highway.service" numLanes="1" oneway="0" priority="2" speed="5.56"/>
   <type disallow="tram rail_urban rail rail_electric ship" id="highway.services" numLanes="1" oneway="0" priority="1" speed="8.33"/>
   <type allow="pedestrian" id="highway.stairs" numLanes="1" oneway="1" priority="1" speed="1.39" width="2.00"/>
   <type allow="pedestrian" id="highway.step" numLanes="1" oneway="1" priority="1" speed="1.39" width="2.00"/>
   <type allow="pedestrian" id="highway.steps" numLanes="1" oneway="1" priority="1" speed="1.39" width="2.00"/>
   <type disallow="tram rail_urban rail rail_electric ship" id="highway.tertiary" numLanes="1" oneway="0" priority="6" speed="22.22"/>
   <type disallow="tram rail_urban rail rail_electric ship" id="highway.tertiary_link" numLanes="1" oneway="0" priority="5" speed="22.22"/>
   <type disallow="tram rail_urban rail rail_electric ship" id="highway.track" numLanes="1" oneway="0" priority="1" speed="5.56"/>
   <type disallow="tram rail_urban rail rail_electric bicycle pedestrian ship" id="highway.trunk" numLanes="2" oneway="0" priority="11" speed="27.78"/>
   <type disallow="tram rail_urban rail rail_electric bicycle pedestrian ship" id="highway.trunk_link" numLanes="1" oneway="0" priority="10" speed="22.22"/>
   <type disallow="tram rail_urban rail rail_electric ship" id="highway.unclassified" numLanes="1" oneway="0" priority="5" speed="13.89"/>
   <type disallow="tram rail_urban rail rail_electric ship" id="highway.unsurfaced" numLanes="1" oneway="0" priority="1" speed="8.33"/>
   <type allow="rail_urban" id="railway.light_rail" numLanes="1" oneway="1" priority="15" speed="27.78"/>
   <type allow="rail" id="railway.preserved" numLanes="1" oneway="1" priority="15" speed="27.78"/>
   <type allow="rail rail_electric" id="railway.rail" numLanes="1" oneway="1" priority="15" speed="83.33"/>
   <type allow="rail_urban" id="railway.subway" numLanes="1" oneway="1" priority="15" speed="27.78"/>
   <type allow="tram" id="railway.tram" numLanes="1" oneway="1" priority="15" speed="13.89"/>
   <edge function="internal" id=":1197565896_0">
      <lane disallow="tram rail_urban rail rail_electric ship" id=":1197565896_0_0" index="0" length="5.48" shape="560.86,621.28 560.50,619.73 559.76,618.86 558.63,618.65 557.10,619.10" speed="11.11"/>
   </edge>
   <edge function="internal" id=":1197565896_1">
      <lane disallow="tram rail_urban rail rail_electric ship" id=":1197565896_1_0" index="0" length="9.89" shape="560.86,621.28 560.09,611.42" speed="8.33"/>
   </edge>
   <edge function="internal" id=":1197565896_2">
      <lane disallow="tram rail_urban rail rail_electric ship" id=":1197565896_2_0" index="0" length="4.82" shape="560.86,621.28 561.58,619.98 562.36,619.49 563.22,619.83 564.15,620.99" speed="8.33"/>
   </edge>
   <edge function="internal" id=":1197565896_3">
      <lane disallow="tram rail_urban rail rail_electric ship" id=":1197565896_3_0" index="0" length="9.81" shape="563.38,611.21 564.15,620.99" speed="8.33"/>
   </edge>
   <edge function="internal" id=":1197565896_4">
      <lane disallow="tram rail_urban rail rail_electric ship" id=":1197565896_4_0" index="0" length="10.73" shape="563.38,611.21 563.10,613.52 561.97,615.61 559.97,617.47 557.10,619.10" speed="11.11"/>
   </edge>
   <edge function="internal" id=":1197565896_5">
      <lane disallow="tram rail_urban rail rail_electric ship" id=":1197565896_5_0" index="0" length="4.82" shape="563.38,611.21 562.64,612.50 561.84,612.97 560.99,612.61 560.09,611.42" speed="8.33"/>
   </edge>
   <edge function="internal" id=":1197565896_6">
      <lane disallow="tram rail_urban rail rail_electric ship" id=":1197565896_6_0" index="0" length="6.77" shape="555.72,616.11 557.69,615.03 559.08,613.89 559.88,612.69 560.09,611.42" speed="11.11"/>
   </edge>
   <edge function="internal" id=":1197565896_7">
      <lane disallow="tram rail_urban rail rail_electric ship" id=":1197565896_7_0" index="0" length="12.29" shape="555.72,616.11 559.13,615.08 561.67,615.55 563.35,617.52 564.15,620.99" speed="11.11"/>
   </edge>
   <edge function="internal" id=":1197565896_8">
      <lane disallow="tram rail_urban rail rail_electric ship" id=":1197565896_8_0" index="0" length="4.82" shape="555.72,616.11 557.19,616.34 557.91,616.91 557.88,617.83 557.10,619.10" speed="13.89"/>
   </edge>
   <edge function="internal" id=":1209371292_0">
      <lane disallow="tram rail_urban rail rail_electric ship" id=":1209371292_0_0" index="0" length="10.57" shape="377.33,314.71 376.26,311.84 375.48,309.76 374.69,307.67 373.60,304.81" speed="8.33"/>
   </edge>
   <edge function="internal" id=":1209371292_1">
      <lane disallow="tram rail_urban rail rail_electric ship" id=":1209371292_1_0" index="0" length="13.80" shape="377.33,314.71 376.39,310.65 377.15,308.02 379.61,306.82 383.77,307.05" speed="8.33"/>
   </edge>
   <edge function="internal" id=":1209371292_2">
      <lane disallow="tram rail_urban rail rail_electric ship" id=":1209371292_2_0" index="0" length="4.82" shape="377.33,314.71 377.66,313.26 378.29,312.58 379.21,312.68 380.42,313.55" speed="8.33"/>
   </edge>
   <edge function="internal" id=":1209371292_3">
      <lane disallow="tram rail_urban rail rail_electric ship" id=":1209371292_3_0" index="0" length="5.87" shape="383.16,310.29 381.39,310.19 380.34,310.71 380.02,311.82 380.42,313.55" speed="8.33"/>
   </edge>
   <edge function="internal" id=":1209371292_4">
      <lane disallow="tram rail_urban rail rail_electric ship" id=":1209371292_4_0" index="0" length="11.44" shape="383.16,310.29 379.55,309.38 376.75,308.17 374.77,306.64 373.60,304.81" speed="8.33"/>
   </edge>
   <edge function="internal" id=":1209371292_5">
      <lane disallow="tram rail_urban rail rail_electric ship" id=":1209371292_5_0" index="0" length="4.82" shape="383.16,310.29 382.10,309.25 381.84,308.36 382.40,307.63 383.77,307.05" speed="8.33"/>
   </edge>
   <edge function="internal" id=":1209371292_6">
      <lane disallow="tram rail_urban rail rail_electric ship" id=":1209371292_6_0" index="0" length="8.11" shape="376.69,303.64 377.45,304.69 378.88,305.61 380.99,306.40 383.77,307.05" speed="8.33"/>
   </edge>
   <edge function="internal" id=":1209371292_7">
      <lane disallow="tram rail_urban rail rail_electric ship" id=":1209371292_7_0" index="0" length="10.59" shape="376.69,303.64 377.78,306.50 378.56,308.59 379.35,310.68 380.42,313.55" speed="8.33"/>
   </edge>
   <edge function="internal" id=":1209371292_8">
      <lane disallow="tram rail_urban rail rail_electric ship" id=":1209371292_8_0" index="0" length="4.82" shape="376.69,303.64 376.36,305.09 375.73,305.77 374.82,305.68 373.60,304.81" speed="8.33"/>
   </edge>
   <edge function="internal" id=":1209372484_0">
      <lane disallow="tram rail_urban rail rail_electric ship" id=":1209372484_0_0" index="0" length="0.10" shape="465.14,592.77 465.14,592.76" speed="8.33"/>
   </edge>
   <edge function="internal" id=":1209372484_1">
      <lane disallow="tram rail_urban rail rail_electric ship" id=":1209372484_1_0" index="0" length="2.41" shape="465.14,592.77 465.94,591.52 466.76,591.09" speed="8.33"/>
   </edge>
   <edge function="internal" id=":1209372484_4">
      <lane id=":1209372484_4_0" index="0" length="2.41" shape="466.76,591.09 467.59,591.49 468.44,592.71" speed="8.33"/>
   </edge>
   <edge function="internal" id=":1209372484_2">
      <lane disallow="tram rail_urban rail rail_electric ship" id=":1209372484_2_0" index="0" length="0.14" shape="468.43,592.57 468.44,592.71" speed="8.33"/>
   </edge>
   <edge function="internal" id=":1209372484_3">
      <lane disallow="tram rail_urban rail rail_electric ship" id=":1209372484_3_0" index="0" length="2.41" shape="468.43,592.57 467.68,593.85 466.88,594.31" speed="8.33"/>
   </edge>
   <edge function="internal" id=":1209372484_5">
      <lane id=":1209372484_5_0" index="0" length="2.41" shape="466.88,594.31 466.03,593.95 465.14,592.76" speed="8.33"/>
   </edge>
   <edge function="internal" id=":1218286612_0">
      <lane allow="delivery bicycle pedestrian" id=":1218286612_0_0" index="0" length="5.30" shape="163.86,590.69 162.55,589.96 161.40,589.89 160.43,590.49 159.62,591.76" speed="6.95"/>
   </edge>
   <edge function="internal" id=":1218286612_1">
      <lane disallow="tram rail_urban rail rail_electric ship" id=":1218286612_1_0" index="0" length="13.60" shape="163.86,590.69 161.06,588.55 158.46,586.56 155.86,584.57 153.06,582.42" speed="8.33"/>
   </edge>
   <edge function="internal" id=":1218286612_2">
      <lane allow="delivery bicycle pedestrian" id=":1218286612_2_0" index="0" length="6.29" shape="163.86,590.69 161.63,588.43 160.13,585.70" speed="6.95"/>
   </edge>
   <edge function="internal" id=":1218286612_3">
      <lane disallow="tram rail_urban rail rail_electric ship" id=":1218286612_3_0" index="0" length="2.41" shape="163.86,590.69 163.38,589.29 163.55,588.38" speed="8.33"/>
   </edge>
   <edge function="internal" id=":1218286612_16">
      <lane id=":1218286612_16_0" index="0" length="7.88" shape="160.13,585.70 160.05,585.55 159.13,582.07 158.85,577.96" speed="6.95"/>
   </edge>
   <edge function="internal" id=":1218286612_17">
      <lane id=":1218286612_17_0" index="0" length="2.41" shape="163.55,588.38 164.38,587.98 165.87,588.07" speed="8.33"/>
   </edge>
   <edge function="internal" id=":1218286612_4">
      <lane disallow="tram rail_urban rail rail_electric ship" id=":1218286612_4_0" index="0" length="11.12" shape="162.15,578.00 162.35,581.32 163.04,584.10 164.21,586.35 165.87,588.07" speed="6.95"/>
   </edge>
   <edge function="internal" id=":1218286612_5">
      <lane allow="delivery bicycle pedestrian" id=":1218286612_5_0" index="0" length="14.10" shape="162.15,578.00 162.02,581.62 161.63,585.05 160.87,588.39 159.62,591.76" speed="5.56"/>
   </edge>
   <edge function="internal" id=":1218286612_6">
      <lane disallow="tram rail_urban rail rail_electric ship" id=":1218286612_6_0" index="0" length="14.75" shape="162.15,578.00 161.53,582.51 159.81,584.75 156.99,584.72 153.06,582.42" speed="6.95"/>
   </edge>
   <edge function="internal" id=":1218286612_7">
      <lane allow="delivery bicycle pedestrian" id=":1218286612_7_0" index="0" length="4.82" shape="162.15,578.00 161.31,579.23 160.48,579.63 159.66,579.21 158.85,577.96" speed="5.56"/>
   </edge>
   <edge function="internal" id=":1218286612_8">
      <lane allow="delivery bicycle pedestrian" id=":1218286612_8_0" index="0" length="6.14" shape="155.07,579.80 156.70,580.76 157.88,580.77 158.59,579.84 158.85,577.96" speed="6.95"/>
   </edge>
   <edge function="internal" id=":1218286612_9">
      <lane disallow="tram rail_urban rail rail_electric ship" id=":1218286612_9_0" index="0" length="13.60" shape="155.07,579.80 157.87,581.95 160.47,583.94 163.06,585.93 165.87,588.07" speed="8.33"/>
   </edge>
   <edge function="internal" id=":1218286612_10">
      <lane allow="delivery bicycle pedestrian" id=":1218286612_10_0" index="0" length="7.63" shape="155.07,579.80 158.12,582.67 159.90,585.62" speed="6.95"/>
   </edge>
   <edge function="internal" id=":1218286612_11">
      <lane disallow="tram rail_urban rail rail_electric ship" id=":1218286612_11_0" index="0" length="2.41" shape="155.07,579.80 155.55,581.21 155.37,582.12" speed="8.33"/>
   </edge>
   <edge function="internal" id=":1218286612_18">
      <lane id=":1218286612_18_0" index="0" length="6.28" shape="159.90,585.62 160.40,588.65 159.62,591.76" speed="6.95"/>
   </edge>
   <edge function="internal" id=":1218286612_19">
      <lane id=":1218286612_19_0" index="0" length="2.41" shape="155.37,582.12 154.55,582.52 153.06,582.42" speed="8.33"/>
   </edge>
   <edge function="internal" id=":1218286612_12">
      <lane disallow="tram rail_urban rail rail_electric ship" id=":1218286612_12_0" index="0" length="9.47" shape="156.61,590.41 157.05,588.44 156.60,586.45 155.27,584.45 153.06,582.42" speed="6.95"/>
   </edge>
   <edge function="internal" id=":1218286612_13">
      <lane allow="delivery bicycle pedestrian" id=":1218286612_13_0" index="0" length="12.76" shape="156.61,590.41 157.82,587.25 158.48,584.35 158.76,581.38 158.85,577.96" speed="5.56"/>
   </edge>
   <edge function="internal" id=":1218286612_14">
      <lane disallow="tram rail_urban rail rail_electric ship" id=":1218286612_14_0" index="0" length="11.58" shape="156.61,590.41 158.37,587.64 160.50,586.32 163.00,586.47 165.87,588.07" speed="6.95"/>
   </edge>
   <edge function="internal" id=":1218286612_15">
      <lane allow="delivery bicycle pedestrian" id=":1218286612_15_0" index="0" length="4.82" shape="156.61,590.41 157.87,589.62 158.79,589.58 159.38,590.30 159.62,591.76" speed="5.56"/>
   </edge>
   <edge function="internal" id=":1218286778_0">
      <lane disallow="tram rail_urban rail rail_electric ship" id=":1218286778_0_0" index="0" length="5.56" shape="154.50,536.69 152.93,536.28 151.80,536.54 151.13,537.47 150.90,539.08" speed="6.95"/>
   </edge>
   <edge function="internal" id=":1218286778_1">
      <lane disallow="tram rail_urban rail rail_electric ship" id=":1218286778_1_0" index="0" length="10.91" shape="154.50,536.69 151.49,535.13 149.34,533.33 148.05,531.30 147.63,529.03" speed="6.95"/>
   </edge>
   <edge function="internal" id=":1218286778_2">
      <lane allow="delivery bicycle pedestrian" id=":1218286778_2_0" index="0" length="4.82" shape="154.50,536.69 153.68,535.45 153.62,534.53 154.32,533.93 155.78,533.65" speed="5.56"/>
   </edge>
   <edge function="internal" id=":1218286778_3">
      <lane allow="delivery bicycle pedestrian" id=":1218286778_3_0" index="0" length="7.03" shape="150.93,529.04 151.23,530.29 152.14,531.48 153.65,532.60 155.78,533.65" speed="6.95"/>
   </edge>
   <edge function="internal" id=":1218286778_4">
      <lane disallow="tram rail_urban rail rail_electric ship" id=":1218286778_4_0" index="0" length="10.04" shape="150.93,529.04 150.92,532.02 150.91,534.06 150.91,536.11 150.90,539.08" speed="8.33"/>
   </edge>
   <edge function="internal" id=":1218286778_5">
      <lane disallow="tram rail_urban rail rail_electric ship" id=":1218286778_5_0" index="0" length="2.41" shape="150.93,529.04 150.10,530.28 149.27,530.69" speed="8.33"/>
   </edge>
   <edge function="internal" id=":1218286778_9">
      <lane id=":1218286778_9_0" index="0" length="2.41" shape="149.27,530.69 148.45,530.27 147.63,529.03" speed="8.33"/>
   </edge>
   <edge function="internal" id=":1218286778_6">
      <lane disallow="tram rail_urban rail rail_electric ship" id=":1218286778_6_0" index="0" length="10.04" shape="147.60,539.07 147.61,536.10 147.61,534.05 147.62,532.01 147.63,529.03" speed="8.33"/>
   </edge>
   <edge function="internal" id=":1218286778_7">
      <lane allow="delivery bicycle pedestrian" id=":1218286778_7_0" index="0" length="5.73" shape="147.60,539.07 148.12,535.42 149.31,533.77" speed="6.95"/>
   </edge>
   <edge function="internal" id=":1218286778_8">
      <lane disallow="tram rail_urban rail rail_electric ship" id=":1218286778_8_0" index="0" length="2.41" shape="147.60,539.07 148.43,537.84 149.25,537.43" speed="8.33"/>
   </edge>
   <edge function="internal" id=":1218286778_10">
      <lane id=":1218286778_10_0" index="0" length="6.90" shape="149.31,533.77 149.66,533.29 152.21,532.71 155.78,533.65" speed="6.95"/>
   </edge>
   <edge function="internal" id=":1218286778_11">
      <lane id=":1218286778_11_0" index="0" length="2.41" shape="149.25,537.43 150.08,537.84 150.90,539.08" speed="8.33"/>
   </edge>
   <edge function="internal" id=":1218306001_0">
      <lane disallow="tram rail_urban rail rail_electric ship" id=":1218306001_0_0" index="0" length="9.50" shape="307.74,327.94 298.25,328.29" speed="8.33"/>
   </edge>
   <edge function="internal" id=":1218306001_1">
      <lane allow="delivery bicycle pedestrian" id=":1218306001_1_0" index="0" length="5.20" shape="307.74,327.94 304.90,327.64 302.85,326.50" speed="6.95"/>
   </edge>
   <edge function="internal" id=":1218306001_2">
      <lane disallow="tram rail_urban rail rail_electric ship" id=":1218306001_2_0" index="0" length="2.41" shape="307.74,327.94 306.48,327.16 306.04,326.35" speed="8.33"/>
   </edge>
   <edge function="internal" id=":1218306001_9">
      <lane id=":1218306001_9_0" index="0" length="5.20" shape="302.85,326.50 301.60,324.52 301.14,321.70" speed="6.95"/>
   </edge>
   <edge function="internal" id=":1218306001_10">
      <lane id=":1218306001_10_0" index="0" length="2.41" shape="306.04,326.35 306.42,325.51 307.62,324.64" speed="8.33"/>
   </edge>
   <edge function="internal" id=":1218306001_3">
      <lane disallow="tram rail_urban rail rail_electric ship" id=":1218306001_3_0" index="0" length="5.02" shape="304.44,321.63 304.66,322.99 305.27,323.95 306.25,324.50 307.62,324.64" speed="6.95"/>
   </edge>
   <edge function="internal" id=":1218306001_4">
      <lane disallow="tram rail_urban rail rail_electric ship" id=":1218306001_4_0" index="0" length="10.33" shape="304.44,321.63 304.10,324.46 302.95,326.51 301.00,327.79 298.25,328.29" speed="6.95"/>
   </edge>
   <edge function="internal" id=":1218306001_5">
      <lane allow="delivery bicycle pedestrian" id=":1218306001_5_0" index="0" length="4.82" shape="304.44,321.63 303.64,322.89 302.82,323.31 301.99,322.92 301.14,321.70" speed="5.56"/>
   </edge>
   <edge function="internal" id=":1218306001_6">
      <lane allow="delivery bicycle pedestrian" id=":1218306001_6_0" index="0" length="5.07" shape="298.13,324.99 299.47,324.74 300.42,324.11 300.97,323.10 301.14,321.70" speed="6.95"/>
   </edge>
   <edge function="internal" id=":1218306001_7">
      <lane disallow="tram rail_urban rail rail_electric ship" id=":1218306001_7_0" index="0" length="9.50" shape="298.13,324.99 307.62,324.64" speed="8.33"/>
   </edge>
   <edge function="internal" id=":1218306001_8">
      <lane disallow="tram rail_urban rail rail_electric ship" id=":1218306001_8_0" index="0" length="2.41" shape="298.13,324.99 299.40,325.77 299.84,326.58" speed="8.33"/>
   </edge>
   <edge function="internal" id=":1218306001_11">
      <lane id=":1218306001_11_0" index="0" length="2.41" shape="299.84,326.58 299.46,327.42 298.25,328.29" speed="8.33"/>
   </edge>
   <edge function="internal" id=":1218306040_0">
      <lane disallow="tram rail_urban rail rail_electric ship" id=":1218306040_0_0" index="0" length="9.51" shape="217.90,330.52 208.39,330.71" speed="8.33"/>
   </edge>
   <edge function="internal" id=":1218306040_1">
      <lane allow="delivery bicycle pedestrian" id=":1218306040_1_0" index="0" length="5.07" shape="217.90,330.52 215.18,330.17 213.17,328.99" speed="6.95"/>
   </edge>
   <edge function="internal" id=":1218306040_2">
      <lane disallow="tram rail_urban rail rail_electric ship" id=":1218306040_2_0" index="0" length="2.41" shape="217.90,330.52 216.65,329.72 216.22,328.90" speed="8.33"/>
   </edge>
   <edge function="internal" id=":1218306040_9">
      <lane id=":1218306040_9_0" index="0" length="5.27" shape="213.17,328.99 211.87,326.99 211.28,324.16" speed="6.95"/>
   </edge>
   <edge function="internal" id=":1218306040_10">
      <lane id=":1218306040_10_0" index="0" length="2.41" shape="216.22,328.90 216.62,328.07 217.84,327.22" speed="8.33"/>
   </edge>
   <edge function="internal" id=":1218306040_3">
      <lane disallow="tram rail_urban rail rail_electric ship" id=":1218306040_3_0" index="0" length="5.22" shape="214.57,323.92 214.87,325.39 215.51,326.42 216.50,327.03 217.84,327.22" speed="6.95"/>
   </edge>
   <edge function="internal" id=":1218306040_4">
      <lane disallow="tram rail_urban rail rail_electric ship" id=":1218306040_4_0" index="0" length="10.59" shape="214.57,323.92 214.37,326.84 213.27,328.94 211.28,330.23 208.39,330.71" speed="6.95"/>
   </edge>
   <edge function="internal" id=":1218306040_5">
      <lane allow="delivery bicycle pedestrian" id=":1218306040_5_0" index="0" length="4.82" shape="214.57,323.92 213.84,325.22 213.05,325.69 212.20,325.34 211.28,324.16" speed="5.56"/>
   </edge>
   <edge function="internal" id=":1218306040_6">
      <lane allow="delivery bicycle pedestrian" id=":1218306040_6_0" index="0" length="5.06" shape="208.33,327.41 209.71,327.18 210.66,326.56 211.19,325.56 211.28,324.16" speed="6.95"/>
   </edge>
   <edge function="internal" id=":1218306040_7">
      <lane disallow="tram rail_urban rail rail_electric ship" id=":1218306040_7_0" index="0" length="9.51" shape="208.33,327.41 217.84,327.22" speed="8.33"/>
   </edge>
   <edge function="internal" id=":1218306040_8">
      <lane disallow="tram rail_urban rail rail_electric ship" id=":1218306040_8_0" index="0" length="2.41" shape="208.33,327.41 209.58,328.21 210.01,329.02" speed="8.33"/>
   </edge>
   <edge function="internal" id=":1218306040_11">
      <lane id=":1218306040_11_0" index="0" length="2.41" shape="210.01,329.02 209.62,329.86 208.39,330.71" speed="8.33"/>
   </edge>
   <edge function="internal" id=":1218306139_0">
      <lane allow="delivery bicycle pedestrian" id=":1218306139_0_0" index="0" length="4.82" shape="294.92,246.34 296.26,245.70 297.18,245.76 297.68,246.54 297.76,248.03" speed="5.56"/>
   </edge>
   <edge function="internal" id=":1218306149_0">
      <lane allow="delivery bicycle pedestrian" id=":1218306149_0_0" index="0" length="4.82" shape="209.74,297.59 210.02,296.13 210.63,295.44 211.55,295.50 212.79,296.32" speed="5.56"/>
   </edge>
   <edge function="internal" id=":1283223067_0">
      <lane allow="delivery bicycle pedestrian" id=":1283223067_0_0" index="0" length="4.82" shape="747.03,237.25 748.17,238.21 748.49,239.07 747.99,239.85 746.67,240.53" speed="5.56"/>
   </edge>
   <edge function="internal" id=":1283223146_0">
      <lane allow="delivery bicycle pedestrian" id=":1283223146_0_0" index="0" length="5.01" shape="646.60,387.63 645.23,387.71 644.22,388.21 643.56,389.13 643.26,390.48" speed="6.95"/>
   </edge>
   <edge function="internal" id=":1283223146_1">
      <lane disallow="tram rail_urban rail rail_electric ship" id=":1283223146_1_0" index="0" length="4.80" shape="646.60,387.63 641.82,387.23" speed="8.33"/>
   </edge>
   <edge function="internal" id=":1283223146_2">
      <lane disallow="tram rail_urban rail rail_electric ship" id=":1283223146_2_0" index="0" length="2.41" shape="646.60,387.63 645.44,386.71 645.10,385.85" speed="8.33"/>
   </edge>
   <edge function="internal" id=":1283223146_9">
      <lane id=":1283223146_9_0" index="0" length="2.41" shape="645.10,385.85 645.58,385.06 646.88,384.35" speed="8.33"/>
   </edge>
   <edge function="internal" id=":1283223146_3">
      <lane disallow="tram rail_urban rail rail_electric ship" id=":1283223146_3_0" index="0" length="5.32" shape="641.58,383.89 646.88,384.35" speed="8.33"/>
   </edge>
   <edge function="internal" id=":1283223146_4">
      <lane allow="delivery bicycle pedestrian" id=":1283223146_4_0" index="0" length="2.44" shape="641.58,383.89 642.50,384.38 643.09,385.64" speed="6.95"/>
   </edge>
   <edge function="internal" id=":1283223146_5">
      <lane disallow="tram rail_urban rail rail_electric ship" id=":1283223146_5_0" index="0" length="2.78" shape="641.58,383.89 642.89,384.63 643.37,385.44 643.24,385.74" speed="8.33"/>
   </edge>
   <edge function="internal" id=":1283223146_10">
      <lane id=":1283223146_10_0" index="0" length="4.85" shape="643.09,385.64 643.34,387.67 643.26,390.48" speed="6.95"/>
   </edge>
   <edge function="internal" id=":1283223146_11">
      <lane id=":1283223146_11_0" index="0" length="2.11" shape="643.24,385.74 643.01,386.30 641.82,387.23" speed="8.33"/>
   </edge>
   <edge function="internal" id=":1283223146_6">
      <lane disallow="tram rail_urban rail rail_electric ship" id=":1283223146_6_0" index="0" length="3.52" shape="639.97,390.22 641.82,387.23" speed="6.95"/>
   </edge>
   <edge function="internal" id=":1283223146_7">
      <lane disallow="tram rail_urban rail rail_electric ship" id=":1283223146_7_0" index="0" length="10.36" shape="639.97,390.22 640.59,387.45 641.95,385.54 644.04,384.51 646.88,384.35" speed="6.95"/>
   </edge>
   <edge function="internal" id=":1283223146_8">
      <lane allow="delivery bicycle pedestrian" id=":1283223146_8_0" index="0" length="4.82" shape="639.97,390.22 640.89,389.05 641.74,388.70 642.54,389.18 643.26,390.48" speed="5.56"/>
   </edge>
   <edge function="internal" id=":1283223268_0">
      <lane allow="delivery bicycle pedestrian" id=":1283223268_0_0" index="0" length="4.82" shape="640.49,426.73 639.58,427.90 638.72,428.25 637.93,427.78 637.20,426.48" speed="5.56"/>
   </edge>
   <edge function="internal" id=":1283223416_0">
      <lane disallow="tram rail_urban rail rail_electric ship" id=":1283223416_0_0" index="0" length="0.10" shape="627.72,387.06 627.72,387.06" speed="8.33"/>
   </edge>
   <edge function="internal" id=":1283223416_1">
      <lane disallow="tram rail_urban rail rail_electric ship" id=":1283223416_1_0" index="0" length="2.41" shape="627.72,387.06 626.49,386.23 626.09,385.40" speed="8.33"/>
   </edge>
   <edge function="internal" id=":1283223416_4">
      <lane id=":1283223416_4_0" index="0" length="2.41" shape="626.09,385.40 626.50,384.58 627.75,383.76" speed="8.33"/>
   </edge>
   <edge function="internal" id=":1283223416_2">
      <lane disallow="tram rail_urban rail rail_electric ship" id=":1283223416_2_0" index="0" length="0.10" shape="627.75,383.76 627.75,383.76" speed="8.33"/>
   </edge>
   <edge function="internal" id=":1283223416_3">
      <lane disallow="tram rail_urban rail rail_electric ship" id=":1283223416_3_0" index="0" length="2.41" shape="627.75,383.76 628.98,384.60 629.39,385.43" speed="8.33"/>
   </edge>
   <edge function="internal" id=":1283223416_5">
      <lane id=":1283223416_5_0" index="0" length="2.41" shape="629.39,385.43 628.97,386.25 627.72,387.06" speed="8.33"/>
   </edge>
   <edge function="internal" id=":1283223458_0">
      <lane allow="delivery bicycle pedestrian" id=":1283223458_0_0" index="0" length="4.82" shape="725.74,238.26 724.60,237.30 724.28,236.44 724.78,235.66 726.10,234.98" speed="5.56"/>
   </edge>
   <edge function="internal" id=":1283223798_0">
      <lane allow="delivery bicycle pedestrian" id=":1283223798_0_0" index="0" length="5.01" shape="668.72,389.50 667.34,389.58 666.33,390.08 665.67,391.00 665.38,392.34" speed="6.95"/>
   </edge>
   <edge function="internal" id=":1283223798_1">
      <lane disallow="tram rail_urban rail rail_electric ship" id=":1283223798_1_0" index="0" length="9.50" shape="668.72,389.50 659.25,388.70" speed="8.33"/>
   </edge>
   <edge function="internal" id=":1283223798_2">