<?xml version="1.0" encoding="utf-8"?><!-- generated on 10/11/17 17:54:03 by SUMO polyconvert Version 0.25.0
<?xml version="1.0" encoding="UTF-8"?>

<configuration xmlns:xsi="http://www.w3.org/2001/XMLSchema-instance" xsi:noNamespaceSchemaLocation="http://sumo.dlr.de/xsd/polyconvertConfiguration.xsd">

    <input>
        <net-file value="HH_Iserbrook_urban_800.net.xml"/>
        <osm-files value="HH_Iserbrook_urban_800.osm"/>
        <type-file value="osmPolyconvert.typ.xml"/>
    </input>

    <output>
        <output-file value="HH_Iserbrook_urban_800.poly.xml"/>
    </output>

    <projection>
        <proj.utm value="true"/>
    </projection>

    <processing>
        <poi-layer-offset value="5"/>
    </processing>

</configuration>
-->
<additional>
   <location convBoundary="-8.61,-2.56,751.01,759.60" netOffset="-553719.44,-5936827.20" origBoundary="9.811301,53.577502,9.822699,53.584299" projParameter="+proj=utm +zone=32 +ellps=WGS84 +datum=WGS84 +units=m +no_defs"/>
   <poly color="235,235,227" fill="1" id="103197073" layer="-3.00" shape="356.56,488.29 100.50,677.03 91.32,665.14 85.45,641.72 85.48,580.07 131.62,578.56 154.25,586.07 155.03,594.46 205.57,633.40 212.39,631.92 241.99,654.43 266.80,672.80 271.55,672.57 275.33,667.23 274.29,651.72 266.93,645.37 270.64,640.66 269.48,623.20 267.76,495.33 268.07,487.86 271.54,483.14 351.30,482.47 356.56,488.29" type="residential"/>
   <poly color="red" fill="1" id="103732739" layer="-1.00" shape="741.88,759.60" type="building"/>
   <poly color="red" fill="0" id="103732763" layer="-1.00" shape="738.83,739.23 740.97,746.95 737.08,748.02 739.19,755.63" type="building"/>
   <poly color="red" fill="1" id="104416769" layer="-1.00" shape="669.78,613.02 658.38,612.64 658.02,623.41 669.41,623.79 669.78,613.02" type="building"/>
   <poly color="red" fill="1" id="104416770" layer="-1.00" shape="671.52,596.80 661.75,596.39 661.40,604.99 671.16,605.39 671.52,596.80" type="building"/>
   <poly color="red" fill="1" id="104416772" layer="-1.00" shape="696.24,618.51 706.42,619.43 706.59,617.58 710.33,617.93 711.25,607.71 697.33,606.45 696.24,618.51" type="building"/>
   <poly color="red" fill="1" id="104416774" layer="-1.00" shape="639.71,583.17 640.11,575.05 627.88,574.45 627.48,582.56 639.71,583.17" type="building"/>
   <poly color="red" fill="1" id="104416775" layer="-1.00" shape="638.54,599.81 638.76,592.68 630.10,592.41 629.88,599.54 638.54,599.81" type="building"/>
   <poly color="red" fill="1" id="104416776" layer="-1.00" shape="724.66,574.92 725.54,565.80 716.75,564.96 715.87,574.09 724.66,574.92" type="building"/>
   <poly color="red" fill="1" id="104416777" layer="-1.00" shape="725.82,561.54 726.45,553.93 715.57,553.03 714.93,560.65 725.82,561.54" type="building"/>
   <poly color="red" fill="1" id="104416778" layer="-1.00" shape="663.25,589.19 670.15,589.37 670.43,578.31 663.53,578.13 663.25,589.19" type="building"/>
   <poly color="red" fill="1" id="104416779" layer="-1.00" shape="687.02,660.87 680.40,663.23 682.65,669.51 689.27,667.15 687.02,660.87" type="building"/>
   <poly color="red" fill="1" id="104416781" layer="-1.00" shape="637.48,616.21 637.79,607.05 627.16,606.70 626.85,615.85 637.48,616.21" type="building"/>
   <poly color="red" fill="1" id="104416782" layer="-1.00" shape="637.64,634.25 638.25,621.67 621.91,620.88 621.30,633.46 637.64,634.25" type="building"/>
   <poly color="red" fill="1" id="104416784" layer="-1.00" shape="709.83,631.69 706.95,623.52 696.14,627.31 699.02,635.48 709.83,631.69" type="building"/>
   <poly color="red" fill="1" id="104416786" layer="-1.00" shape="722.70,590.92 723.82,580.93 709.71,579.35 708.59,589.33 722.70,590.92" type="building"/>
   <poly color="red" fill="1" id="104416788" layer="-1.00" shape="677.42,554.77 677.34,538.62 673.70,538.63 673.68,533.30 666.38,533.33 666.44,545.78 672.63,545.75 672.67,554.80 677.42,554.77" type="building"/>
   <poly color="red" fill="1" id="104416789" layer="-1.00" shape="632.56,649.10 632.92,640.07 623.49,639.69 623.13,648.72 632.56,649.10" type="building"/>
   <poly color="red" fill="1" id="104416791" layer="-1.00" shape="670.99,657.01 672.31,657.04 672.63,646.97 657.93,646.50 657.61,656.58 670.99,657.01" type="building"/>
   <poly color="red" fill="1" id="104416792" layer="-1.00" shape="711.17,603.21 712.13,594.71 702.41,593.61 701.12,605.04 707.78,605.79 708.11,602.86 711.17,603.21" type="building"/>
   <poly color="red" fill="1" id="104416793" layer="-1.00" shape="623.22,674.79 613.67,674.20 613.14,682.75 622.68,683.35 623.22,674.79" type="building"/>
   <poly color="red" fill="1" id="104416794" layer="-1.00" shape="688.42,535.47 688.17,542.94 698.05,543.26 698.29,535.80 688.42,535.47" type="building"/>
   <poly color="red" fill="1" id="104416795" layer="-1.00" shape="694.72,657.41 692.86,652.22 684.73,655.12 686.59,660.31 694.72,657.41" type="building"/>
   <poly color="red" fill="1" id="104416796" layer="-1.00" shape="703.30,648.53 718.42,644.00 715.95,635.82 700.83,640.35 703.30,648.53" type="building"/>
   <poly color="red" fill="1" id="104416799" layer="-1.00" shape="667.53,640.92 667.71,629.59 662.83,629.51 662.80,631.59 658.18,631.52 658.04,640.78 667.53,640.92" type="building"/>
   <poly color="red" fill="1" id="104416801" layer="-1.00" shape="640.12,567.53 640.45,558.43 627.29,557.94 626.96,567.04 640.12,567.53" type="building"/>
   <poly color="red" fill="1" id="104416803" layer="-1.00" shape="711.68,681.21 711.92,678.73 712.61,671.45 718.44,672.00 719.30,662.78 710.98,662.01 711.25,659.16 702.27,658.32 701.49,666.78 690.53,671.09 693.25,677.96 697.28,676.37 698.29,686.48 711.68,681.21" type="building"/>
   <poly color="red" fill="1" id="104416804" layer="-1.00" shape="631.45,668.62 631.62,660.56 622.47,660.36 622.32,668.44 631.45,668.62" type="building"/>
   <poly color="red" fill="1" id="104416809" layer="-1.00" shape="635.98,536.64 632.25,536.47 631.89,544.42 642.49,544.90 642.85,536.95 635.98,536.64" type="building"/>
   <poly color="red" fill="1" id="104416811" layer="-1.00" shape="727.79,548.18 728.49,540.71 719.24,539.85 719.06,541.79 712.11,541.14 711.59,546.67 727.79,548.18" type="building"/>
   <poly color="red" fill="1" id="104868822" layer="-1.00" shape="599.36,523.03 591.91,523.34 592.39,535.18 599.85,534.87 599.36,523.03" type="building"/>
   <poly color="red" fill="1" id="104868823" layer="-1.00" shape="414.29,563.70 414.08,555.20 403.41,555.46 403.62,563.97 414.29,563.70" type="building"/>
   <poly color="red" fill="1" id="104868824" layer="-1.00" shape="524.32,621.00 524.22,619.49 523.29,619.54 523.13,616.78 499.12,618.22 499.51,624.54 499.64,626.89 500.61,626.84 500.75,629.05 506.73,628.70 512.73,628.33 518.73,627.98 524.72,627.62 524.32,621.00" type="building"/>
   <poly color="red" fill="1" id="104868826" layer="-1.00" shape="456.06,525.32 445.73,525.35 445.73,526.87 442.28,526.87 442.31,535.96 446.87,535.95 446.88,537.22 456.09,537.19 456.06,525.32" type="building"/>
   <poly color="red" fill="1" id="104868828" layer="-1.00" shape="382.04,33.56 383.25,38.43 395.87,35.30 392.82,23.00 380.19,26.13 382.04,33.56" type="building"/>
   <poly color="red" fill="1" id="104868829" layer="-1.00" shape="336.00,55.15 328.28,55.86 329.08,61.77 336.57,60.96 336.00,55.15" type="building"/>
   <poly color="red" fill="1" id="104868830" layer="-1.00" shape="412.31,428.01 412.49,416.35 401.40,416.19 401.23,427.85 412.31,428.01" type="building"/>
   <poly color="red" fill="1" id="104868831" layer="-1.00" shape="361.41,201.88 359.46,196.56 353.94,198.58 353.49,197.38 345.50,200.28 348.30,207.94 356.23,205.05 355.82,203.92 361.41,201.88" type="building"/>
   <poly color="red" fill="1" id="104868832" layer="-1.00" shape="530.31,645.68 530.48,648.44 531.41,648.39 531.50,649.89 537.02,649.56 542.54,649.23 548.05,648.90 547.39,638.06 529.92,639.10 530.31,645.68" type="building"/>
   <poly color="red" fill="1" id="104868833" layer="-1.00" shape="521.70,492.18 513.61,492.07 513.52,498.44 505.28,498.33 505.11,510.26 514.71,510.39 514.81,503.72 521.53,503.81 521.70,492.18" type="building"/>
   <poly color="red" fill="1" id="104868834" layer="-1.00" shape="363.91,251.53 371.67,248.69 368.64,240.45 360.87,243.30 363.91,251.53" type="building"/>
   <poly color="235,235,227" fill="1" id="104868835" layer="-3.00" shape="416.53,513.59 375.05,513.14 370.54,509.24 362.29,402.27 368.72,396.51 413.54,394.54 416.78,397.37 418.89,511.60 416.53,513.59" type="residential"/>
   <poly color="red" fill="1" id="104868836" layer="-1.00" shape="521.24,397.01 505.54,396.78 505.43,404.38 495.08,404.22 494.98,410.89 503.37,411.01 503.40,408.82 516.33,409.02 516.38,405.25 521.12,405.31 521.24,397.01" type="building"/>
   <poly color="red" fill="1" id="104868837" layer="-1.00" shape="565.62,661.41 563.63,656.46 543.07,664.72 545.06,669.67 565.62,661.41" type="building"/>
   <poly color="red" fill="1" id="104868839" layer="-1.00" shape="485.64,534.55 485.38,523.54 475.25,523.78 475.50,534.78 485.64,534.55" type="building"/>
   <poly color="red" fill="1" id="104868843" layer="-1.00" shape="383.02,449.67 383.16,439.31 370.68,439.13 370.53,449.49 383.02,449.67" type="building"/>
   <poly color="red" fill="1" id="104868844" layer="-1.00" shape="735.49,474.45 736.42,466.91 728.63,465.95 728.28,468.80 723.29,468.18 722.71,472.89 735.49,474.45" type="building"/>
   <poly color="red" fill="1" id="104868846" layer="-1.00" shape="522.47,356.96 522.26,349.77 512.37,350.06 512.59,357.25 522.47,356.96" type="building"/>
   <poly color="red" fill="1" id="104868847" layer="-1.00" shape="737.15,459.94 738.07,452.39 730.29,451.43 729.94,454.27 724.94,453.66 724.36,458.37 737.15,459.94" type="building"/>
   <poly color="red" fill="1" id="104868849" layer="-1.00" shape="458.86,647.64 458.11,620.41 447.05,620.71 447.80,647.95 458.86,647.64" type="building"/>
   <poly color="red" fill="1" id="104868852" layer="-1.00" shape="430.85,486.14 439.93,485.89 439.68,476.58 430.60,476.83 430.85,486.14" type="building"/>
   <poly color="red" fill="1" id="104868853" layer="-1.00" shape="502.95,125.55 502.70,118.31 490.78,118.74 491.13,125.90 502.95,125.55" type="building"/>
   <poly color="red" fill="1" id="104868855" layer="-1.00" shape="443.11,424.10 443.06,417.71 428.07,417.83 428.12,424.23 443.11,424.10" type="building"/>
   <poly color="red" fill="1" id="104868857" layer="-1.00" shape="536.45,408.67 536.35,417.50 551.45,417.68 551.55,408.84 536.45,408.67" type="building"/>
   <poly color="red" fill="1" id="104868859" layer="-1.00" shape="550.76,459.07 541.31,459.14 541.31,460.26 536.74,460.30 536.80,467.93 539.12,467.92 539.17,473.59 550.88,473.50 550.76,459.07" type="building"/>
   <poly color="red" fill="1" id="104868861" layer="-1.00" shape="369.83,262.99 384.16,258.11 381.52,250.41 367.19,255.30 369.83,262.99" type="building"/>
   <poly color="red" fill="1" id="104868863" layer="-1.00" shape="496.11,532.26 499.04,532.24 499.06,536.96 506.01,536.94 506.03,542.75 510.45,542.73 510.41,527.58 505.22,527.59 505.21,523.39 496.09,523.42 496.11,532.26" type="building"/>
   <poly color="red" fill="1" id="104868864" layer="-1.00" shape="341.56,105.89 341.06,100.01 333.67,100.62 334.17,106.50 341.56,105.89" type="building"/>
   <poly color="red" fill="1" id="104868865" layer="-1.00" shape="414.50,487.03 414.64,477.68 403.13,477.51 402.99,486.87 414.50,487.03" type="building"/>
   <poly color="235,235,227" fill="1" id="104868867" layer="-3.00" shape="523.27,379.84 465.84,383.05 370.76,383.89 361.34,378.74 341.76,194.89 320.72,16.18 325.66,8.96 353.81,2.75 513.87,164.72 527.78,373.75 523.27,379.84" type="residential"/>
   <poly color="red" fill="1" id="104868868" layer="-1.00" shape="733.89,489.16 734.82,481.60 727.03,480.64 726.68,483.49 721.69,482.87 721.11,487.58 733.89,489.16" type="building"/>
   <poly color="red" fill="1" id="104868871" layer="-1.00" shape="521.71,340.72 521.03,328.02 505.24,328.86 505.93,341.57 521.71,340.72" type="building"/>
   <poly color="red" fill="1" id="104868872" layer="-1.00" shape="504.57,290.48 518.04,289.75 517.26,275.28 503.79,276.00 504.57,290.48" type="building"/>
   <poly color="red" fill="1" id="104868873" layer="-1.00" shape="433.00,525.80 423.29,525.82 423.31,533.04 433.02,533.02 433.00,525.80" type="building"/>
   <poly color="red" fill="1" id="104868875" layer="-1.00" shape="745.56,403.08 731.31,401.33 730.48,408.03 744.74,409.77 745.56,403.08" type="building"/>
   <poly color="red" fill="1" id="104868876" layer="-1.00" shape="622.04,531.28 622.61,524.51 615.24,523.88 614.58,531.52 616.26,531.66 615.46,541.00 624.34,541.75 625.21,531.55 622.04,531.28" type="building"/>
   <poly color="red" fill="1" id="104868877" layer="-1.00" shape="427.38,398.66 427.32,408.76 442.89,408.85 442.93,402.81 436.80,402.77 436.82,398.71 427.38,398.66" type="building"/>
   <poly color="red" fill="1" id="104868880" layer="-1.00" shape="343.40,81.22 342.57,72.43 331.47,73.48 332.31,82.28 343.40,81.22" type="building"/>
   <poly color="red" fill="1" id="104868882" layer="-1.00" shape="411.65,398.98 397.04,398.77 396.86,411.15 411.47,411.36 411.65,398.98" type="building"/>
   <poly color="red" fill="1" id="104868883" layer="-1.00" shape="336.61,139.33 337.31,145.73 348.81,144.47 348.41,140.80 352.89,140.32 352.59,137.58 336.61,139.33" type="building"/>
   <poly color="red" fill="1" id="104868886" layer="-1.00" shape="732.22,504.97 733.00,495.20 724.10,494.49 723.33,504.27 732.22,504.97" type="building"/>
   <poly color="red" fill="1" id="104868887" layer="-1.00" shape="351.68,191.94 350.65,182.78 341.81,183.77 342.85,192.93 351.68,191.94" type="building"/>
   <poly color="235,235,227" fill="1" id="104868888" layer="-3.00" shape="525.32,507.70 521.09,510.91 429.14,512.34 425.91,509.82 422.68,398.06 425.68,394.21 520.90,391.58 525.22,394.58 525.32,507.70" type="residential"/>
   <poly color="red" fill="1" id="104868891" layer="-1.00" shape="410.71,540.55 410.67,525.80 400.62,525.83 400.63,526.72 397.01,526.73 397.05,540.60 410.71,540.55" type="building"/>
   <poly color="red" fill="1" id="104868892" layer="-1.00" shape="504.65,143.60 504.40,133.02 487.91,133.42 488.08,140.71 497.28,140.50 497.36,143.77 504.65,143.60" type="building"/>
   <poly color="red" fill="1" id="104868893" layer="-1.00" shape="435.71,689.64 434.93,678.21 414.05,679.62 414.55,686.85 395.81,688.11 396.61,699.98 406.60,699.31 416.59,698.64 416.08,690.97 425.89,690.31 435.71,689.64" type="building"/>
   <poly color="red" fill="1" id="104868896" layer="-1.00" shape="557.57,697.38 566.40,694.05 565.80,684.25 554.24,688.60 557.57,697.38" type="building"/>
   <poly color="red" fill="1" id="104868897" layer="-1.00" shape="414.69,507.51 414.85,496.85 404.55,496.70 404.40,507.36 414.69,507.51" type="building"/>
   <poly color="235,235,227" fill="0" id="104868898" layer="-3.00" shape="647.79,381.40 645.60,377.66 656.45,250.60 658.18,150.62 647.62,13.25" type="residential"/>
   <poly color="red" fill="1" id="104868901" layer="-1.00" shape="731.55,513.56 726.20,512.99 726.56,509.67 714.85,508.42 714.18,514.66 708.67,514.08 708.07,519.64 713.57,520.22 713.74,518.63 730.82,520.45 731.55,513.56" type="building"/>
   <poly color="red" fill="1" id="104868902" layer="-1.00" shape="538.74,523.69 538.56,536.35 548.96,536.49 549.09,527.64 545.82,527.59 545.88,523.79 538.74,523.69" type="building"/>
   <poly color="red" fill="1" id="104868905" layer="-1.00" shape="384.74,469.47 384.87,459.92 373.43,459.76 373.29,469.29 384.74,469.47" type="building"/>
   <poly color="red" fill="1" id="104868906" layer="-1.00" shape="465.66,677.30 464.60,657.69 452.16,658.35 453.21,677.96 465.66,677.30" type="building"/>
   <poly color="red" fill="1" id="104868907" layer="-1.00" shape="472.93,506.75 473.12,494.22 466.00,494.11 465.96,496.84 460.72,496.77 460.58,506.58 472.93,506.75" type="building"/>
   <poly color="red" fill="1" id="104868911" layer="-1.00" shape="391.66,542.19 391.62,526.47 377.96,526.50 378.00,538.23 381.67,538.22 381.68,542.22 391.66,542.19" type="building"/>
   <poly color="red" fill="1" id="104868913" layer="-1.00" shape="555.88,443.41 535.52,443.35 535.51,451.72 542.35,451.73 542.34,455.61 555.86,455.65 555.88,443.41" type="building"/>
   <poly color="red" fill="1" id="104868915" layer="-1.00" shape="506.69,653.44 506.83,655.79 507.79,655.73 507.93,657.95 508.29,663.93 502.83,664.26 497.38,664.59 491.92,664.91 491.28,654.37 506.69,653.44" type="building"/>
   <poly color="red" fill="1" id="104868917" layer="-1.00" shape="519.28,301.83 518.93,294.65 511.02,295.03 511.38,302.21 519.28,301.83" type="building"/>
   <poly color="red" fill="1" id="104868918" layer="-1.00" shape="499.51,624.54 499.64,626.89 500.61,626.84 500.75,629.05 501.10,635.03 495.64,635.36 490.19,635.70 484.73,636.02 484.09,625.47 499.51,624.54" type="building"/>
   <poly color="235,235,227" fill="1" id="104868920" layer="-3.00" shape="514.91,722.72 632.11,684.44 638.90,673.87 649.78,537.20 650.77,529.92 643.21,523.98 626.48,520.42 607.75,519.28 564.46,518.96 560.83,527.96 563.80,574.61 566.25,605.73 567.60,625.09 566.55,631.31 562.01,636.02 555.06,638.09 548.48,634.02 545.24,627.56 547.47,619.90 554.07,613.84 557.26,607.95 557.17,598.99 554.28,561.27 553.59,523.74 549.92,519.51 474.63,520.66 470.21,524.89 470.87,575.88 471.25,589.97 475.34,594.38 475.30,631.74 481.93,658.59 480.54,663.79 487.66,682.62 504.10,718.77 514.91,722.72" type="residential"/>
   <poly color="red" fill="1" id="104868923" layer="-1.00" shape="432.61,650.24 431.83,638.81 410.96,640.22 411.45,647.45 392.71,648.72 393.51,660.58 403.51,659.91 413.51,659.24 412.98,651.57 422.80,650.91 432.61,650.24" type="building"/>
   <poly color="red" fill="1" id="104868924" layer="-1.00" shape="471.28,446.49 471.44,438.81 461.53,438.60 461.36,446.26 471.28,446.49" type="building"/>
   <poly color="red" fill="1" id="104868925" layer="-1.00" shape="351.73,177.24 358.81,176.46 357.80,167.57 350.73,168.35 351.73,177.24" type="building"/>
   <poly color="red" fill="1" id="104868926" layer="-1.00" shape="520.79,475.88 506.04,475.67 505.89,485.98 515.74,486.13 515.77,483.93 520.68,483.99 520.79,475.88" type="building"/>
   <poly color="red" fill="1" id="104868927" layer="-1.00" shape="606.18,529.12 600.27,528.83 599.78,538.66 605.69,538.95 606.18,529.12" type="building"/>
   <poly color="237,199,199" fill="1" id="104868928" layer="-1.00" shape="417.18,326.46 439.06,318.68 435.12,307.65 427.75,310.27 422.29,307.42 417.28,293.36 406.71,297.11 417.18,326.46" type="amenity"/>
   <poly color="red" fill="1" id="104868928#1" layer="-1.00" shape="417.18,326.46 439.06,318.68 435.12,307.65 427.75,310.27 422.29,307.42 417.28,293.36 406.71,297.11 417.18,326.46" type="building"/>
   <poly color="red" fill="1" id="104868929" layer="-1.00" shape="520.99,319.70 520.59,309.85 511.57,310.22 511.97,320.06 520.99,319.70" type="building"/>
   <poly color="235,235,227" fill="1" id="104868930" layer="-3.00" shape="536.79,389.90 625.12,391.70 741.19,528.78 679.48,523.71 657.43,518.69 622.73,511.22 581.34,508.96 538.67,510.18 533.88,507.33 533.47,393.91 536.79,389.90" type="residential"/>
   <poly color="red" fill="1" id="104868933" layer="-1.00" shape="521.11,416.43 508.33,416.24 508.11,431.22 503.39,431.16 503.15,448.05 514.82,448.22 514.89,443.36 521.13,443.45 521.23,436.06 513.57,435.95 513.63,431.30 513.74,423.62 521.00,423.73 521.11,416.43" type="building"/>
   <poly color="red" fill="1" id="104868934" layer="-1.00" shape="484.62,70.46 484.74,73.46 484.96,79.32 499.96,78.74 499.62,69.88 484.62,70.46" type="building"/>
   <poly color="red" fill="1" id="104868935" layer="-1.00" shape="470.36,397.66 460.06,397.72 460.11,405.59 470.41,405.53 470.36,397.66" type="building"/>
   <poly color="red" fill="1" id="104868936" layer="-1.00" shape="503.80,712.49 516.43,707.36 512.56,697.86 499.93,702.99 503.80,712.49" type="building"/>
   <poly color="red" fill="1" id="104868937" layer="-1.00" shape="549.61,548.55 549.58,540.23 542.30,540.25 542.33,548.58 549.61,548.55" type="building"/>
   <poly color="red" fill="1" id="104868938" layer="-1.00" shape="349.76,157.71 356.76,156.93 355.80,148.44 348.80,149.22 349.76,157.71" type="building"/>
   <poly color="red" fill="1" id="104868939" layer="-1.00" shape="375.68,489.29 386.15,489.45 386.31,478.72 375.83,478.57 375.68,489.29" type="building"/>
   <poly color="red" fill="1" id="104868940" layer="-1.00" shape="378.79,287.85 382.16,297.30 388.47,295.06 387.78,293.13 394.01,290.92 391.33,283.40 378.79,287.85" type="building"/>
   <poly color="red" fill="1" id="104868941" layer="-1.00" shape="613.62,544.91 613.74,541.93 608.90,541.72 608.77,544.70 613.62,544.91" type="building"/>
   <poly color="red" fill="1" id="104868942" layer="-1.00" shape="531.50,649.89 531.41,648.39 530.48,648.44 530.31,645.68 506.31,647.12 506.69,653.44 506.83,655.79 507.79,655.73 507.93,657.95 513.92,657.60 519.91,657.23 525.90,656.88 531.90,656.52 531.50,649.89" type="building"/>
   <poly color="red" fill="1" id="104868943" layer="-1.00" shape="414.95,24.39 419.37,23.26 419.71,24.58 427.06,22.71 423.87,10.26 419.04,11.50 418.81,10.58 411.87,12.35 414.95,24.39" type="building"/>
   <poly color="red" fill="1" id="104868945" layer="-1.00" shape="446.06,506.60 446.17,499.20 440.17,499.12 440.20,497.05 430.88,496.91 430.82,500.90 430.74,506.38 443.51,506.56 446.06,506.60" type="building"/>
   <poly color="red" fill="1" id="104868946" layer="-1.00" shape="347.24,40.78 355.24,38.89 352.45,27.11 344.44,29.00 347.24,40.78" type="building"/>
   <poly color="235,235,227" fill="1" id="104868947" layer="-3.00" shape="495.54,723.58 473.95,674.06 466.78,646.12 462.89,611.75 461.63,525.03 457.22,521.00 376.40,522.38 372.69,526.84 492.72,731.40 495.54,723.58" type="residential"/>
   <poly color="red" fill="1" id="104868948" layer="-1.00" shape="386.88,508.77 387.04,497.51 374.46,497.32 374.30,508.59 386.88,508.77" type="building"/>
   <poly color="red" fill="1" id="104868949" layer="-1.00" shape="414.18,467.25 414.32,457.35 402.39,457.18 402.24,467.08 414.18,467.25" type="building"/>
   <poly color="red" fill="1" id="104868950" layer="-1.00" shape="375.70,278.86 383.45,276.32 381.17,269.39 373.42,271.91 375.70,278.86" type="building"/>
   <poly color="red" fill="1" id="104868951" layer="-1.00" shape="362.19,237.91 369.69,234.95 366.54,227.02 359.05,229.98 362.19,237.91" type="building"/>
   <poly color="red" fill="1" id="104868952" layer="-1.00" shape="436.90,13.85 434.49,14.45 436.74,23.41 458.96,17.86 456.71,8.89 453.99,9.58 436.90,13.85" type="building"/>
   <poly color="red" fill="1" id="104868953" layer="-1.00" shape="741.11,424.02 742.05,416.46 734.25,415.51 733.90,418.35 726.88,417.49 725.92,425.24 731.44,425.92 731.81,422.87 741.11,424.02" type="building"/>
   <poly color="235,235,227" fill="0" id="104868954" layer="-3.00" shape="743.69,709.49 740.02,701.05" type="residential"/>
   <poly color="red" fill="1" id="104868955" layer="-1.00" shape="391.76,566.23 391.57,555.22 378.26,555.43 378.45,566.44 391.76,566.23" type="building"/>
   <poly color="red" fill="1" id="104868957" layer="-1.00" shape="657.45,427.18 660.03,393.51 654.54,393.09 654.40,394.92 644.75,394.19 642.19,427.48 647.49,427.90 647.60,426.43 657.45,427.18" type="building"/>
   <poly color="red" fill="1" id="104868958" layer="-1.00" shape="537.98,590.05 549.04,589.99 548.98,577.84 537.91,577.90 537.98,590.05" type="building"/>
   <poly color="red" fill="1" id="104868959" layer="-1.00" shape="552.31,697.72 546.34,683.27 541.53,685.25 543.58,690.22 537.67,692.65 541.58,702.12 552.31,697.72" type="building"/>
   <poly color="red" fill="1" id="104868960" layer="-1.00" shape="413.64,447.98 413.79,437.65 404.01,437.51 403.86,447.84 413.64,447.98" type="building"/>
   <poly color="red" fill="1" id="104868961" layer="-1.00" shape="429.55,611.01 429.07,603.97 439.02,603.31 448.97,602.64 448.13,590.24 427.38,591.64 427.92,599.63 407.89,600.97 408.38,608.22 389.65,609.47 390.45,621.34 400.45,620.68 410.44,620.00 409.92,612.33 419.73,611.68 429.55,611.01" type="building"/>
   <poly color="red" fill="1" id="104868963" layer="-1.00" shape="357.70,225.45 366.19,222.38 360.80,207.51 352.30,210.56 353.97,215.16 356.24,221.42 357.70,225.45" type="building"/>
   <poly color="red" fill="1" id="104868964" layer="-1.00" shape="523.54,374.29 523.30,367.25 515.58,367.52 515.82,374.54 523.54,374.29" type="building"/>
   <poly color="red" fill="1" id="104868967" layer="-1.00" shape="523.13,616.78 523.29,619.54 524.22,619.49 524.32,621.00 529.83,620.66 535.35,620.34 540.86,620.00 540.20,609.16 522.73,610.21 523.13,616.78" type="building"/>
   <poly color="red" fill="1" id="104868968" layer="-1.00" shape="487.14,587.98 495.43,587.45 494.79,577.69 486.50,578.23 487.14,587.98" type="building"/>
   <poly color="red" fill="1" id="104868969" layer="-1.00" shape="595.20,668.27 597.30,668.27 597.30,663.50 597.30,658.73 597.30,653.95 597.30,649.18 597.29,644.41 582.64,644.42 582.65,668.28 595.20,668.27" type="building"/>
   <poly color="red" fill="1" id="104868970" layer="-1.00" shape="438.74,447.32 438.87,438.02 428.58,437.87 428.44,447.17 438.74,447.32" type="building"/>
   <poly color="red" fill="1" id="104868972" layer="-1.00" shape="496.83,20.12 481.48,20.58 481.81,31.07 490.13,30.81 490.07,28.57 497.09,28.36 496.83,20.12" type="building"/>
   <poly color="red" fill="1" id="104868973" layer="-1.00" shape="538.14,703.60 533.86,691.92 518.67,697.46 522.95,709.14 538.14,703.60" type="building"/>
   <poly color="red" fill="1" id="104868974" layer="-1.00" shape="379.01,429.48 378.40,416.50 369.13,416.93 369.74,429.91 379.01,429.48" type="building"/>
   <poly color="red" fill="1" id="104868975" layer="-1.00" shape="515.81,454.13 508.28,454.02 508.13,463.87 520.59,464.05 520.69,456.77 515.78,456.70 515.81,454.13" type="building"/>
   <poly color="red" fill="1" id="104868976" layer="-1.00" shape="455.98,562.58 455.30,544.63 448.08,544.90 448.43,554.10 443.91,554.28 444.25,563.02 455.98,562.58" type="building"/>
   <poly color="red" fill="1" id="104868977" layer="-1.00" shape="553.08,495.59 536.84,495.58 536.84,502.88 544.31,502.89 544.31,505.29 553.08,505.31 553.08,495.59" type="building"/>
   <poly color="red" fill="1" id="104868978" layer="-1.00" shape="582.65,668.28 580.47,668.28 580.48,691.41 595.21,691.41 595.21,686.78 595.20,682.16 595.20,677.53 595.20,672.90 595.20,668.27 582.65,668.28" type="building"/>
   <poly color="red" fill="1" id="104868979" layer="-1.00" shape="429.21,467.48 439.05,467.62 439.19,457.74 429.35,457.60 429.21,467.48" type="building"/>
   <poly color="235,235,227" fill="1" id="104868980" layer="-3.00" shape="633.17,380.77 541.72,379.87 536.15,374.30 527.73,254.38 520.90,134.32 514.04,11.40 649.66,173.31 648.86,242.65 638.09,375.39 633.17,380.77" type="residential"/>
   <poly color="red" fill="1" id="104868981" layer="-1.00" shape="588.64,635.07 589.19,623.23 574.61,622.55 574.06,634.39 588.64,635.07" type="building"/>
   <poly color="red" fill="1" id="104868982" layer="-1.00" shape="536.49,425.64 536.48,433.71 544.37,433.73 544.36,438.57 558.61,438.60 558.62,434.19 552.01,434.19 552.02,428.64 549.51,428.64 549.52,425.67 536.49,425.64" type="building"/>
   <poly color="red" fill="1" id="104868983" layer="-1.00" shape="643.84,712.91 647.42,711.48 651.00,710.03 654.59,708.59 658.16,707.14 656.90,704.03 660.92,702.41 664.94,700.80 668.96,699.17 672.97,697.55 676.99,695.93 681.01,694.32 685.03,692.69 680.12,680.59 652.00,691.92 653.25,695.00 638.92,700.77 643.84,712.91" type="building"/>
   <poly color="red" fill="1" id="104868984" layer="-1.00" shape="529.84,524.44 518.76,524.25 518.56,535.63 529.65,535.81 529.84,524.44" type="building"/>
   <poly color="red" fill="1" id="104868985" layer="-1.00" shape="605.69,538.95 609.97,539.16 610.46,529.32 606.18,529.12 605.69,538.95" type="building"/>
   <poly color="red" fill="1" id="104868986" layer="-1.00" shape="484.49,1.70" type="building"/>
   <poly color="red" fill="1" id="104868987" layer="-1.00" shape="551.31,478.77 536.50,478.72 536.47,486.97 551.28,487.03 551.31,478.77" type="building"/>
   <poly color="red" fill="1" id="105808146" layer="-1.00" shape="192.55,391.07 192.55,378.02 184.18,378.02 184.18,391.08 192.55,391.07" type="building"/>
   <poly color="red" fill="1" id="105808148" layer="-1.00" shape="279.04,383.77 278.83,375.22 270.41,375.42 270.61,383.98 279.04,383.77" type="building"/>
   <poly color="red" fill="1" id="105808149" layer="-1.00" shape="253.74,431.51 253.41,423.10 245.92,423.39 246.25,431.80 253.74,431.51" type="building"/>
   <poly color="237,199,199" fill="1" id="105808152" layer="-1.00" shape="340.46,413.75 339.95,407.67 332.36,408.30 332.87,414.39 340.46,413.75" type="amenity"/>
   <poly color="red" fill="1" id="105808152#1" layer="-1.00" shape="340.46,413.75 339.95,407.67 332.36,408.30 332.87,414.39 340.46,413.75" type="building"/>
   <poly color="red" fill="1" id="105808153" layer="-1.00" shape="192.56,360.11 192.50,352.60 183.74,352.66 183.80,360.16 192.56,360.11" type="building"/>
   <poly color="red" fill="1" id="105808154" layer="-1.00" shape="279.62,359.44 279.50,351.98 270.48,352.12 270.60,359.57 279.62,359.44" type="building"/>
   <poly color="red" fill="1" id="105808155" layer="-1.00" shape="254.57,451.03 254.38,438.39 243.18,438.56 243.37,451.19 254.57,451.03" type="building"/>
   <poly color="red" fill="1" id="105808156" layer="-1.00" shape="343.09,430.04 341.70,416.00 331.87,416.97 333.26,431.00 343.09,430.04" type="building"/>
   <poly color="red" fill="1" id="105808157" layer="-1.00" shape="162.66,406.89 162.70,397.92 153.54,397.87 153.50,406.84 162.66,406.89" type="building"/>
   <poly color="red" fill="1" id="105808159" layer="-1.00" shape="163.42,426.67 163.24,412.46 148.12,412.65 148.31,426.87 163.42,426.67" type="building"/>