<?xml version="1.0" encoding="utf-8"?><!-- generated on 10/11/17 17:54:15 by SUMO polyconvert Version 0.25.0
<?xml version="1.0" encoding="UTF-8"?>

<configuration xmlns:xsi="http://www.w3.org/2001/XMLSchema-instance" xsi:noNamespaceSchemaLocation="http://sumo.dlr.de/xsd/polyconvertConfiguration.xsd">

    <input>
        <net-file value="IN_Altstadt_historical_800.net.xml"/>
        <osm-files value="IN_Altstadt_historical_800.osm"/>
        <type-file value="osmPolyconvert.typ.xml"/>
    </input>

    <output>
        <output-file value="IN_Altstadt_historical_800.poly.xml"/>
    </output>

    <projection>
        <proj.utm value="true"/>
    </projection>

    <processing>
        <poi-layer-offset value="5"/>
    </processing>

</configuration>
-->
<additional>
   <location convBoundary="-15.74,0.00,807.11,822.43" netOffset="-677833.18,-5403720.96" origBoundary="11.419967,48.761044,11.430899,48.768246" projParameter="+proj=utm +zone=32 +ellps=WGS84 +datum=WGS84 +units=m +no_defs"/>
   <poly color="red" fill="1" id="101238052" layer="-1.00" shape="686.56,375.69 698.28,382.07 723.53,395.68 728.79,386.02 691.83,366.02 686.56,375.69" type="building"/>
   <poly color="red" fill="1" id="103671260" layer="-1.00" shape="516.55,311.52 496.16,303.77 500.93,291.29 521.32,299.05 519.90,302.76 517.77,308.35 516.55,311.52" type="building"/>
   <poly color="237,199,199" fill="1" id="103687532" layer="-1.00" shape="452.89,265.41 445.70,262.19 449.85,252.94 457.05,256.17 452.89,265.41" type="amenity"/>
   <poly color="red" fill="1" id="110778810" layer="-1.00" shape="438.01,547.14 437.04,549.97 435.41,555.23 437.86,556.04 445.71,558.51 448.52,550.25 438.01,547.14" type="building"/>
   <poly color="red" fill="1" id="110778811" layer="-1.00" shape="419.45,614.72 419.74,624.13 430.29,623.69 434.98,623.52 434.61,614.91 431.03,615.06 431.16,618.21 429.09,618.28 428.93,614.74 419.45,614.72" type="building"/>
   <poly color="red" fill="1" id="110778814" layer="-1.00" shape="542.92,594.39 516.35,585.77 513.84,593.48 539.96,601.93 542.92,594.39" type="building"/>
   <poly color="red" fill="1" id="110778816" layer="-1.00" shape="478.66,625.00 482.39,613.66 492.26,615.24 488.99,626.69 478.66,625.00" type="building"/>
   <poly color="red" fill="1" id="110778818" layer="-1.00" shape="399.63,491.39 405.46,492.18 406.60,483.12 407.45,481.10 402.04,480.38 400.89,482.34 399.63,491.39" type="building"/>
   <poly color="red" fill="1" id="110778819" layer="-1.00" shape="687.71,503.73 686.65,506.85 689.96,508.42 686.03,517.93 678.68,514.61 677.86,517.13 679.28,517.59 677.49,522.67 672.97,521.14 675.32,513.12 679.09,499.92 687.71,503.73" type="building"/>
   <poly color="red" fill="1" id="110778820" layer="-1.00" shape="422.00,472.54 422.90,472.63 423.15,469.27 423.45,466.57 414.83,466.24 413.68,466.19 413.75,471.61 422.00,472.54" type="building"/>
   <poly color="red" fill="1" id="110778821" layer="-1.00" shape="427.17,474.92 427.91,467.70 440.29,469.17 440.13,474.24 439.26,476.32 427.17,474.92" type="building"/>
   <poly color="red" fill="1" id="110778822" layer="-1.00" shape="479.87,591.72 477.88,601.76 469.44,599.98 471.41,591.32 474.14,589.62 476.16,582.20 478.26,582.70 482.05,583.81 479.87,591.72" type="building"/>
   <poly color="red" fill="1" id="110778823" layer="-1.00" shape="522.40,469.38 527.06,457.13 529.59,449.78 523.99,448.08 519.27,446.84 517.86,452.29 516.67,456.98 510.89,455.39 508.36,466.55 515.33,468.92 515.28,470.16 516.34,470.40 516.91,475.23 521.77,474.78 522.40,469.38" type="building"/>
   <poly color="red" fill="1" id="110778825" layer="-1.00" shape="500.00,486.49 511.03,487.03 510.64,475.91 503.85,475.46 503.53,477.90 500.36,477.75 500.00,486.49" type="building"/>
   <poly color="red" fill="1" id="110778826" layer="-1.00" shape="514.53,560.79 506.61,585.55 512.73,587.58 514.11,583.47 515.78,584.02 522.55,563.15 514.53,560.79" type="building"/>
   <poly color="red" fill="1" id="110778827" layer="-1.00" shape="683.34,524.70 685.11,520.25 686.03,517.93 678.68,514.61 677.86,517.13 679.28,517.59 677.49,522.67 683.34,524.70" type="building"/>
   <poly color="red" fill="1" id="110778828" layer="-1.00" shape="422.02,685.44 422.06,689.12 424.05,689.09 432.13,688.94 432.11,685.34 422.02,685.44" type="building"/>
   <poly color="red" fill="1" id="110778829" layer="-1.00" shape="454.01,483.74 459.80,484.32 459.94,482.87 461.10,483.00 463.43,468.40 461.01,467.88 460.41,468.32 455.09,468.09 454.58,477.14 454.01,483.74" type="building"/>
   <poly color="red" fill="1" id="110778830" layer="-1.00" shape="455.60,458.58 455.26,464.98 455.09,468.09 460.41,468.32 461.01,467.88 463.43,468.40 468.75,469.55 468.11,472.98 477.32,474.14 479.33,462.30 470.42,461.09 460.85,459.88 460.93,458.83 455.60,458.58" type="building"/>
   <poly color="red" fill="1" id="110778831" layer="-1.00" shape="663.82,453.87 662.64,453.63 660.31,463.17 672.57,465.85 675.06,456.92 663.82,453.87" type="building"/>
   <poly color="red" fill="1" id="110778832" layer="-1.00" shape="483.00,512.55 495.71,513.29 490.74,537.43 484.50,535.67 484.62,534.90 482.25,534.05 478.59,532.61 483.00,512.55" type="building"/>
   <poly color="red" fill="1" id="110778833" layer="-1.00" shape="430.66,544.98 430.43,547.80 437.04,549.97 438.01,547.14 430.66,544.98" type="building"/>
   <poly color="red" fill="1" id="110778834" layer="-1.00" shape="458.93,578.18 459.22,576.00 460.53,569.16 462.00,561.83 482.42,565.69 478.26,582.70 476.16,582.20 470.13,580.68 463.09,579.09 458.93,578.18" type="building"/>
   <poly color="red" fill="1" id="110778835" layer="-1.00" shape="515.54,708.64 517.01,696.54 527.84,697.73 536.62,698.66 532.91,710.69 515.54,708.64" type="building"/>
   <poly color="red" fill="1" id="110778836" layer="-1.00" shape="647.39,486.65 651.65,465.69 656.89,466.08 652.13,487.97 647.39,486.65" type="building"/>
   <poly color="red" fill="1" id="110778837" layer="-1.00" shape="524.44,616.02 527.63,606.49 520.61,604.16 521.74,600.78 511.73,597.44 511.23,598.94 510.52,601.08 507.41,610.34 524.44,616.02" type="building"/>
   <poly color="red" fill="1" id="110778838" layer="-1.00" shape="465.92,528.99 473.44,530.78 472.37,535.34 465.21,533.46 465.92,528.99" type="building"/>
   <poly color="red" fill="1" id="110778839" layer="-1.00" shape="394.12,472.23 387.01,471.14 386.41,471.60 381.03,470.75 381.68,465.43 394.76,467.58 394.49,469.85 394.12,472.23" type="building"/>
   <poly color="red" fill="1" id="110778840" layer="-1.00" shape="503.04,596.21 504.76,591.12 512.10,593.56 512.93,593.84 511.73,597.44 511.23,598.94 509.07,598.21 503.04,596.21" type="building"/>
   <poly color="red" fill="1" id="110778841" layer="-1.00" shape="425.79,543.42 427.90,536.31 419.16,533.77 419.07,540.44 419.12,542.05 425.79,543.42" type="building"/>
   <poly color="red" fill="1" id="110778842" layer="-1.00" shape="670.81,528.46 680.53,531.77 683.34,524.70 677.49,522.67 672.97,521.14 670.81,528.46" type="building"/>
   <poly color="red" fill="1" id="110778843" layer="-1.00" shape="504.76,591.12 506.61,585.55 512.73,587.58 513.39,587.79 512.44,590.66 513.01,590.84 512.10,593.56 504.76,591.12" type="building"/>
   <poly color="red" fill="1" id="110778844" layer="-1.00" shape="434.20,571.79 432.15,582.43 433.65,582.72 442.88,584.75 444.64,576.03 446.55,576.47 447.10,573.68 446.66,573.60 445.31,573.32 434.40,570.96 434.20,571.79" type="building"/>
   <poly color="red" fill="1" id="110778845" layer="-1.00" shape="675.06,456.92 663.82,453.87 665.93,445.28 668.28,435.91 680.34,439.51 675.06,456.92" type="building"/>
   <poly color="red" fill="1" id="110778846" layer="-1.00" shape="399.63,491.39 392.05,490.46 393.41,477.44 394.12,472.23 394.49,469.85 401.76,470.68 400.44,478.23 399.71,478.51 399.47,480.44 400.89,482.34 399.63,491.39" type="building"/>
   <poly color="red" fill="1" id="110778847" layer="-1.00" shape="662.64,525.51 666.82,510.69 675.32,513.12 672.97,521.14 670.81,528.46 662.64,525.51" type="building"/>
   <poly color="red" fill="1" id="110778848" layer="-1.00" shape="643.61,520.56 658.57,523.68 660.31,515.36 650.81,513.39 645.35,512.25 643.61,520.56" type="building"/>
   <poly color="red" fill="1" id="110778849" layer="-1.00" shape="424.66,697.78 425.42,708.49 435.45,707.79 435.10,702.97 438.78,702.71 438.36,696.81 436.52,696.94 424.66,697.78" type="building"/>
   <poly color="red" fill="1" id="110778850" layer="-1.00" shape="392.05,490.46 381.28,489.00 383.06,475.93 393.41,477.44 392.05,490.46" type="building"/>
   <poly color="red" fill="1" id="110778851" layer="-1.00" shape="509.68,630.76 511.35,621.74 492.26,615.24 488.99,626.69 509.68,630.76" type="building"/>
   <poly color="red" fill="1" id="110778852" layer="-1.00" shape="440.13,474.24 440.29,469.17 444.28,469.65 445.02,463.44 455.26,464.98 455.09,468.09 454.58,477.14 445.80,476.38 440.13,474.24" type="building"/>
   <poly color="red" fill="1" id="110778853" layer="-1.00" shape="421.26,477.01 422.00,472.54 413.75,471.61 413.85,473.07 413.68,476.10 421.26,477.01" type="building"/>
   <poly color="red" fill="1" id="110778855" layer="-1.00" shape="499.22,607.61 507.41,610.34 510.52,601.08 508.36,600.35 509.07,598.21 503.04,596.21 499.22,607.61" type="building"/>
   <poly color="red" fill="1" id="110778856" layer="-1.00" shape="482.99,473.87 483.59,464.37 495.14,466.66 493.75,474.14 490.35,474.16 482.99,473.87" type="building"/>
   <poly color="red" fill="1" id="110778857" layer="-1.00" shape="440.98,594.71 443.82,595.21 444.67,590.45 441.88,589.99 440.98,594.71" type="building"/>
   <poly color="red" fill="1" id="110778858" layer="-1.00" shape="420.80,580.27 422.17,590.86 431.73,593.15 433.65,582.72 432.15,582.43 420.80,580.27" type="building"/>
   <poly color="red" fill="1" id="110778860" layer="-1.00" shape="460.93,458.83 460.85,459.88 470.42,461.09 471.91,448.20 462.27,447.77 460.93,458.83" type="building"/>
   <poly color="red" fill="1" id="110778861" layer="-1.00" shape="423.88,462.18 423.45,466.57 414.83,466.24 415.51,461.79 423.88,462.18" type="building"/>
   <poly color="red" fill="1" id="110778863" layer="-1.00" shape="419.55,562.93 419.45,557.15 430.86,559.70 431.09,558.69 437.20,558.73 438.57,558.77 438.41,562.74 436.02,562.96 435.90,564.72 428.82,563.06 419.55,562.93" type="building"/>
   <poly color="237,199,199" fill="1" id="110778864" layer="-1.00" shape="436.55,507.64 435.63,506.75 434.93,507.47 435.61,508.11 435.23,512.12 432.57,511.82 431.89,511.11 431.28,511.72 431.78,512.38 431.28,516.48 430.49,517.24 431.03,517.88 431.83,517.29 434.28,517.66 433.78,521.57 433.10,522.29 433.63,523.06 434.42,522.49 439.15,523.01 439.19,524.05 440.09,524.15 440.24,523.20 442.86,523.53 443.21,524.64 443.87,524.71 444.32,523.68 446.50,523.99 446.74,524.91 447.57,525.01 447.90,524.21 450.07,524.40 450.45,525.36 451.34,525.47 451.58,524.66 454.53,525.00 454.43,527.12 461.47,527.99 462.01,524.02 462.68,523.84 462.78,522.86 464.86,521.23 465.58,521.49 466.03,521.00 465.37,520.22 465.71,517.61 466.57,517.10 466.18,516.37 465.61,516.55 463.68,514.28 464.15,513.56 463.43,513.05 462.79,513.79 460.54,513.48 460.61,512.62 459.55,512.42 459.43,513.16 458.50,513.05 458.72,511.11 459.55,510.51 458.99,509.72 458.33,510.28 453.44,509.74 453.48,508.96 452.62,508.78 452.34,509.66 449.71,509.24 449.80,508.41 448.79,508.26 448.60,509.19 446.00,508.79 446.14,507.90 445.07,507.77 444.94,508.61 442.27,508.31 442.30,507.46 441.32,507.34 441.21,508.18 436.55,507.64" type="amenity"/>
   <poly color="red" fill="1" id="110778864#1" layer="-1.00" shape="436.55,507.64 435.63,506.75 434.93,507.47 435.61,508.11 435.23,512.12 432.57,511.82 431.89,511.11 431.28,511.72 431.78,512.38 431.28,516.48 430.49,517.24 431.03,517.88 431.83,517.29 434.28,517.66 433.78,521.57 433.10,522.29 433.63,523.06 434.42,522.49 439.15,523.01 439.19,524.05 440.09,524.15 440.24,523.20 442.86,523.53 443.21,524.64 443.87,524.71 444.32,523.68 446.50,523.99 446.74,524.91 447.57,525.01 447.90,524.21 450.07,524.40 450.45,525.36 451.34,525.47 451.58,524.66 454.53,525.00 454.43,527.12 461.47,527.99 462.01,524.02 462.68,523.84 462.78,522.86 464.86,521.23 465.58,521.49 466.03,521.00 465.37,520.22 465.71,517.61 466.57,517.10 466.18,516.37 465.61,516.55 463.68,514.28 464.15,513.56 463.43,513.05 462.79,513.79 460.54,513.48 460.61,512.62 459.55,512.42 459.43,513.16 458.50,513.05 458.72,511.11 459.55,510.51 458.99,509.72 458.33,510.28 453.44,509.74 453.48,508.96 452.62,508.78 452.34,509.66 449.71,509.24 449.80,508.41 448.79,508.26 448.60,509.19 446.00,508.79 446.14,507.90 445.07,507.77 444.94,508.61 442.27,508.31 442.30,507.46 441.32,507.34 441.21,508.18 436.55,507.64" type="building"/>
   <poly color="red" fill="1" id="110778866" layer="-1.00" shape="419.73,572.39 420.80,580.27 432.15,582.43 434.20,571.79 428.61,570.74 427.97,573.47 419.73,572.39" type="building"/>
   <poly color="red" fill="1" id="110778867" layer="-1.00" shape="655.25,499.00 656.23,491.77 656.63,489.50 660.16,490.36 659.90,491.75 665.15,493.03 662.68,504.02 654.57,502.33 655.25,499.00" type="building"/>
   <poly color="red" fill="1" id="110778868" layer="-1.00" shape="479.33,462.30 480.32,448.81 471.91,448.20 470.42,461.09 479.33,462.30" type="building"/>
   <poly color="red" fill="1" id="110778869" layer="-1.00" shape="506.39,513.54 514.07,515.75 509.80,530.46 502.12,528.23 502.70,526.25 506.39,513.54" type="building"/>
   <poly color="red" fill="1" id="110778870" layer="-1.00" shape="483.59,464.37 485.70,451.93 500.22,456.38 503.83,457.22 495.14,466.66 483.59,464.37" type="building"/>
   <poly color="red" fill="1" id="110778871" layer="-1.00" shape="436.93,714.03 442.19,713.40 441.41,708.28 436.35,708.76 436.93,714.03" type="building"/>
   <poly color="red" fill="1" id="110778873" layer="-1.00" shape="646.49,440.79 647.11,437.85 644.67,437.34 646.65,428.99 653.31,430.67 651.11,441.77 646.49,440.79" type="building"/>
   <poly color="red" fill="1" id="110778875" layer="-1.00" shape="411.65,493.12 413.55,477.15 408.80,475.81 408.40,478.74 407.45,481.10 406.60,483.12 405.46,492.18 411.65,493.12" type="building"/>
   <poly color="red" fill="1" id="110778876" layer="-1.00" shape="526.69,514.99 516.95,511.98 512.97,524.81 519.70,526.88 527.71,528.37 532.44,529.77 532.85,524.53 524.53,521.97 526.69,514.99" type="building"/>
   <poly color="red" fill="1" id="110778877" layer="-1.00" shape="510.81,559.70 511.28,558.10 513.53,550.50 518.15,551.86 521.28,541.34 523.66,542.04 527.71,528.37 532.44,529.77 530.85,534.92 526.36,550.23 522.55,563.15 514.53,560.79 510.81,559.70" type="building"/>
   <poly color="red" fill="1" id="110778878" layer="-1.00" shape="447.10,573.68 459.22,576.00 460.53,569.16 447.97,566.76 446.66,573.60 447.10,573.68" type="building"/>
   <poly color="red" fill="1" id="110778881" layer="-1.00" shape="666.82,510.69 667.73,505.21 670.43,494.31 679.76,496.64 679.09,499.92 675.32,513.12 666.82,510.69" type="building"/>
   <poly color="red" fill="1" id="110778882" layer="-1.00" shape="456.17,447.70 455.60,458.58 460.93,458.83 462.27,447.77 456.17,447.70" type="building"/>
   <poly color="red" fill="1" id="110778883" layer="-1.00" shape="446.92,595.71 453.51,596.37 455.53,587.53 456.60,578.76 451.93,577.75 450.69,585.45 449.77,591.24 447.66,590.96 446.92,595.71" type="building"/>
   <poly color="red" fill="1" id="110778885" layer="-1.00" shape="504.75,572.86 507.77,564.24 500.88,561.83 500.09,564.07 493.75,561.86 491.51,568.24 496.10,569.84 504.75,572.86" type="building"/>
   <poly color="red" fill="1" id="110778886" layer="-1.00" shape="657.59,447.14 660.90,433.31 653.31,430.67 651.11,441.77 650.30,445.61 657.59,447.14" type="building"/>
   <poly color="red" fill="1" id="110778887" layer="-1.00" shape="436.93,714.03 426.78,715.84 425.42,708.49 435.45,707.79 435.69,708.87 436.35,708.76 436.93,714.03" type="building"/>
   <poly color="red" fill="1" id="110778889" layer="-1.00" shape="453.51,596.37 469.44,599.98 471.41,591.32 467.89,590.52 470.13,580.68 463.09,579.09 460.89,588.75 455.53,587.53 453.51,596.37" type="building"/>
   <poly color="red" fill="1" id="110778891" layer="-1.00" shape="454.58,477.14 454.01,483.74 453.06,494.57 443.95,494.17 445.80,476.38 454.58,477.14" type="building"/>
   <poly color="red" fill="1" id="110778892" layer="-1.00" shape="484.38,485.46 489.59,485.83 490.35,474.16 482.99,473.87 484.38,485.46" type="building"/>
   <poly color="237,199,255" fill="1" id="110778892#1" layer="-1.00" shape="484.38,485.46 489.59,485.83 490.35,474.16 482.99,473.87 484.38,485.46" type="shop"/>
   <poly color="red" fill="1" id="110778893" layer="-1.00" shape="494.27,551.73 486.15,550.19 487.35,543.18 480.14,541.97 481.18,538.07 482.25,534.05 484.62,534.90 484.50,535.67 490.74,537.43 497.08,540.22 494.86,547.57 494.27,551.73" type="building"/>
   <poly color="red" fill="1" id="110778894" layer="-1.00" shape="537.48,665.99 535.84,665.52 536.71,662.46 538.44,662.94 539.45,659.38 547.79,661.73 544.41,673.62 535.99,671.24 537.48,665.99" type="building"/>
   <poly color="red" fill="1" id="110778895" layer="-1.00" shape="660.17,667.51 643.26,660.02 646.38,653.04 663.28,660.53 660.17,667.51" type="building"/>
   <poly color="red" fill="1" id="110778897" layer="-1.00" shape="408.73,447.19 400.00,446.48 398.27,447.70 397.97,450.05 396.50,461.55 405.60,462.26 405.63,461.24 407.20,461.34 408.73,447.19" type="building"/>
   <poly color="red" fill="1" id="110778898" layer="-1.00" shape="660.31,515.36 661.10,511.59 651.60,509.61 650.81,513.39 660.31,515.36" type="building"/>
   <poly color="red" fill="1" id="110778899" layer="-1.00" shape="517.86,452.29 519.27,446.84 515.19,445.65 487.77,437.60 486.83,444.58 517.86,452.29" type="building"/>
   <poly color="red" fill="1" id="110778900" layer="-1.00" shape="651.60,509.61 653.19,502.04 654.57,502.33 662.68,504.02 661.10,511.59 651.60,509.61" type="building"/>
   <poly color="red" fill="1" id="110778901" layer="-1.00" shape="385.86,448.75 385.14,455.91 384.71,460.15 396.50,461.55 397.97,450.05 385.86,448.75" type="building"/>
   <poly color="red" fill="1" id="110778902" layer="-1.00" shape="475.57,485.25 474.59,496.15 458.84,495.07 459.80,484.32 459.94,482.87 461.10,483.00 463.78,483.57 466.34,483.95 475.57,485.25" type="building"/>
   <poly color="red" fill="1" id="110778903" layer="-1.00" shape="511.03,487.03 523.66,485.37 521.77,474.78 516.91,475.23 510.64,475.91 511.03,487.03" type="building"/>
   <poly color="red" fill="1" id="110778904" layer="-1.00" shape="419.46,610.01 419.45,614.72 428.93,614.74 429.03,610.66 419.46,610.01" type="building"/>
   <poly color="red" fill="1" id="110778905" layer="-1.00" shape="414.05,447.51 408.73,447.19 407.20,461.34 409.01,461.35 414.49,461.74 414.05,447.51" type="building"/>
   <poly color="red" fill="1" id="110778906" layer="-1.00" shape="445.31,573.32 446.59,566.41 437.47,564.48 435.90,564.72 434.40,570.96 445.31,573.32" type="building"/>
   <poly color="red" fill="1" id="110778907" layer="-1.00" shape="575.64,719.30 567.75,717.02 570.56,707.24 578.53,709.51 575.64,719.30" type="building"/>
   <poly color="red" fill="1" id="110778908" layer="-1.00" shape="477.32,474.14 475.57,485.25 466.34,483.95 468.11,472.98 477.32,474.14" type="building"/>
   <poly color="red" fill="1" id="110778909" layer="-1.00" shape="494.86,547.57 502.83,549.96 505.52,541.05 497.56,538.65 497.08,540.22 494.86,547.57" type="building"/>
   <poly color="red" fill="1" id="110778910" layer="-1.00" shape="419.55,562.93 419.73,572.39 427.97,573.47 428.61,570.74 434.20,571.79 434.40,570.96 435.90,564.72 428.82,563.06 419.55,562.93" type="building"/>
   <poly color="red" fill="1" id="110778911" layer="-1.00" shape="484.38,584.29 482.05,583.81 478.26,582.70 482.42,565.69 489.33,567.87 487.63,573.58 493.97,575.78 496.10,569.84 504.75,572.86 497.13,595.01 488.48,592.03 491.68,582.60 485.63,580.44 484.38,584.29" type="building"/>
   <poly color="red" fill="1" id="110778912" layer="-1.00" shape="485.70,451.93 486.83,444.58 517.86,452.29 516.67,456.98 510.89,455.39 501.06,452.61 500.22,456.38 485.70,451.93" type="building"/>
   <poly color="red" fill="1" id="110778913" layer="-1.00" shape="458.84,495.07 453.06,494.57 454.01,483.74 459.80,484.32 458.84,495.07" type="building"/>
   <poly color="red" fill="1" id="110778915" layer="-1.00" shape="477.88,601.76 493.81,605.69 497.13,595.01 488.48,592.03 487.58,594.69 485.09,594.06 485.44,592.99 479.87,591.72 477.88,601.76" type="building"/>
   <poly color="red" fill="1" id="110778916" layer="-1.00" shape="508.36,466.55 504.79,465.69 506.55,457.87 503.83,457.22 500.22,456.38 501.06,452.61 510.89,455.39 508.36,466.55" type="building"/>
   <poly color="red" fill="1" id="110778917" layer="-1.00" shape="474.64,535.87 472.37,535.34 465.21,533.46 463.38,533.16 457.90,556.11 469.00,558.82 474.64,535.87" type="building"/>
   <poly color="red" fill="1" id="110778918" layer="-1.00" shape="646.68,497.92 647.87,488.73 651.77,489.35 651.69,490.61 656.23,491.77 655.25,499.00 646.68,497.92" type="building"/>
   <poly color="red" fill="1" id="110778919" layer="-1.00" shape="419.45,557.15 430.86,559.70 431.09,558.69 437.20,558.73 437.86,556.04 435.41,555.23 430.06,553.55 419.42,551.52 419.45,557.15" type="building"/>
   <poly color="red" fill="1" id="110778921" layer="-1.00" shape="515.19,445.65 517.82,437.34 511.12,435.48 510.37,438.19 501.96,435.84 503.29,431.07 496.25,429.10 490.32,427.44 487.77,437.60 515.19,445.65" type="building"/>
   <poly color="red" fill="1" id="110778922" layer="-1.00" shape="414.49,461.74 409.01,461.35 408.68,465.44 413.68,466.19 414.83,466.24 415.51,461.79 414.49,461.74" type="building"/>
   <poly color="red" fill="1" id="110778923" layer="-1.00" shape="570.56,707.24 576.27,688.05 590.10,691.91 586.00,698.44 579.13,696.51 578.56,698.77 584.05,700.25 580.97,710.23 578.53,709.51 570.56,707.24" type="building"/>
   <poly color="red" fill="1" id="110778924" layer="-1.00" shape="489.59,485.83 500.00,486.49 500.36,477.75 498.67,477.62 498.95,474.63 499.63,474.58 500.97,465.13 504.79,465.69 506.55,457.87 503.83,457.22 495.14,466.66 493.75,474.14 490.35,474.16 489.59,485.83" type="building"/>
   <poly color="red" fill="1" id="110778925" layer="-1.00" shape="468.11,472.98 466.34,483.95 463.78,483.57 461.10,483.00 463.43,468.40 468.75,469.55 468.11,472.98" type="building"/>
   <poly color="red" fill="1" id="110778926" layer="-1.00" shape="413.68,466.19 408.68,465.44 408.10,465.36 407.83,467.87 403.26,467.43 402.59,473.25 413.85,473.07 413.75,471.61 413.68,466.19" type="building"/>
   <poly color="red" fill="1" id="110778927" layer="-1.00" shape="668.28,435.91 660.90,433.31 657.59,447.14 657.08,449.53 661.66,450.50 662.89,444.71 665.93,445.28 668.28,435.91" type="building"/>
   <poly color="red" fill="1" id="110778928" layer="-1.00" shape="425.79,543.42 430.66,544.98 430.43,547.80 430.06,553.55 419.42,551.52 419.12,542.05 425.79,543.42" type="building"/>
   <poly color="red" fill="1" id="110778929" layer="-1.00" shape="495.71,513.29 490.74,537.43 497.08,540.22 497.56,538.65 496.74,538.45 499.40,525.41 502.70,526.25 506.39,513.54 504.83,513.30 495.71,513.29" type="building"/>
   <poly color="red" fill="1" id="110778930" layer="-1.00" shape="657.32,469.67 659.02,462.84 660.31,463.17 672.57,465.85 665.15,493.03 659.90,491.75 660.16,490.36 656.63,489.50 653.78,488.82 655.71,480.88 658.36,469.97 657.32,469.67" type="building"/>
   <poly color="red" fill="1" id="110778931" layer="-1.00" shape="742.82,435.14 738.92,433.17 740.12,429.73 741.30,426.37 745.22,427.45 752.86,429.34 751.54,433.68 749.79,439.38 747.15,448.01 741.23,446.28 741.37,445.63 741.26,444.94 740.75,444.52 739.98,444.28 742.82,435.14" type="building"/>
   <poly color="red" fill="1" id="110778932" layer="-1.00" shape="440.98,594.71 441.88,589.99 442.88,584.75 433.65,582.72 431.73,593.15 440.98,594.71" type="building"/>
   <poly color="red" fill="1" id="110778933" layer="-1.00" shape="511.28,558.10 503.12,556.59 512.97,524.81 519.70,526.88 513.53,550.50 511.28,558.10" type="building"/>
   <poly color="red" fill="1" id="110781553" layer="-1.00" shape="657.69,586.44 651.45,584.27 652.18,582.44 658.63,584.34 657.69,586.44" type="building"/>
   <poly color="red" fill="1" id="110781554" layer="-1.00" shape="543.82,475.26 546.33,468.59 538.13,465.23 535.61,471.88 543.82,475.26" type="building"/>
   <poly color="red" fill="1" id="110781555" layer="-1.00" shape="555.73,658.19 556.60,655.49 553.55,654.53 551.34,653.83 550.55,656.40 555.73,658.19" type="building"/>
   <poly color="red" fill="1" id="110781556" layer="-1.00" shape="730.31,525.51 734.71,527.55 730.92,537.94 728.77,537.14 725.90,536.06 730.31,525.51" type="building"/>
   <poly color="red" fill="1" id="110781557" layer="-1.00" shape="721.38,585.19 715.90,583.26 716.43,579.84 719.35,580.21 723.70,580.99 721.38,585.19" type="building"/>
   <poly color="red" fill="1" id="110781558" layer="-1.00" shape="702.39,626.29 699.07,630.54 697.17,630.53 690.63,625.07 695.08,619.28 695.93,618.18 699.10,620.80 697.88,622.57 702.39,626.29" type="building"/>
   <poly color="red" fill="1" id="110781559" layer="-1.00" shape="736.90,540.61 735.77,543.21 732.13,551.45 739.49,554.27 742.34,546.55 743.47,543.52 741.48,542.52 736.90,540.61" type="building"/>
   <poly color="red" fill="1" id="110781560" layer="-1.00" shape="657.51,566.39 674.04,574.45 668.79,585.15 677.05,589.17 686.21,570.46 674.89,564.94 661.73,558.83 658.97,563.42 657.51,566.39" type="building"/>
   <poly color="red" fill="1" id="110781562" layer="-1.00" shape="682.93,619.81 675.01,614.31 679.12,607.99 684.90,612.17 687.95,607.16 690.43,608.26 688.46,611.30 682.93,619.81" type="building"/>
   <poly color="red" fill="1" id="110781563" layer="-1.00" shape="596.96,614.98 609.08,618.94 614.78,602.22 602.28,598.68 596.96,614.98" type="building"/>
   <poly color="red" fill="1" id="110781564" layer="-1.00" shape="528.02,550.72 520.89,573.68 556.06,584.80 558.89,575.38 563.23,561.65 546.14,556.02 528.02,550.72" type="building"/>
   <poly color="red" fill="1" id="110781565" layer="-1.00" shape="523.99,448.08 529.59,449.78 527.06,457.13 535.02,460.39 536.93,457.63 537.99,452.35 550.62,456.99 556.31,442.45 537.30,435.22 535.61,439.27 526.97,437.38 523.99,448.08" type="building"/>
   <poly color="red" fill="1" id="110781566" layer="-1.00" shape="682.90,562.16 687.35,552.33 700.14,557.42 695.74,568.00 682.90,562.16" type="building"/>
   <poly color="red" fill="1" id="110781567" layer="-1.00" shape="713.02,596.47 707.12,604.33 715.65,611.31 721.86,603.40 713.02,596.47" type="building"/>
   <poly color="red" fill="1" id="110781568" layer="-1.00" shape="680.95,599.52 675.27,596.34 687.22,575.12 692.90,578.31 680.95,599.52" type="building"/>
   <poly color="red" fill="1" id="110781569" layer="-1.00" shape="719.44,588.89 717.18,591.38 713.02,596.47 721.86,603.40 728.27,596.06 719.44,588.89" type="building"/>
   <poly color="red" fill="1" id="110781570" layer="-1.00" shape="723.70,580.99 721.38,585.19 730.96,591.40 737.56,581.35 740.63,573.99 731.18,570.07 730.02,569.59 726.62,577.05 727.49,577.69 725.80,580.93 724.27,579.97 723.70,580.99" type="building"/>
   <poly color="red" fill="1" id="110781572" layer="-1.00" shape="683.34,524.70 686.12,525.62 687.80,521.37 685.11,520.25 683.34,524.70" type="building"/>
   <poly color="red" fill="1" id="110781573" layer="-1.00" shape="650.94,559.24 655.79,561.66 658.97,563.42 661.73,558.83 669.34,544.60 660.26,541.16 650.94,559.24" type="building"/>
   <poly color="red" fill="1" id="110781574" layer="-1.00" shape="668.48,609.77 662.86,606.10 667.74,598.01 670.08,599.47 668.66,601.76 672.30,604.23 668.48,609.77" type="building"/>
   <poly color="red" fill="1" id="110781575" layer="-1.00" shape="705.46,577.49 700.11,575.52 696.34,584.63 703.40,588.36 708.77,592.81 713.02,596.47 717.18,591.38 708.01,583.64 703.86,581.12 705.46,577.49" type="building"/>
   <poly color="red" fill="1" id="110781576" layer="-1.00" shape="721.98,547.31 703.34,540.50 707.50,529.50 714.36,532.34 725.49,537.05 721.98,547.31" type="building"/>
   <poly color="red" fill="1" id="110781577" layer="-1.00" shape="546.14,556.02 550.48,541.22 552.95,541.95 556.78,528.90 549.15,526.66 549.65,524.96 540.91,522.42 536.72,536.65 530.85,534.92 526.36,550.23 528.02,550.72 546.14,556.02" type="building"/>
   <poly color="red" fill="1" id="110781578" layer="-1.00" shape="715.41,563.73 730.02,569.59 726.62,577.05 726.02,576.80 724.27,579.97 723.70,580.99 719.35,580.21 721.51,575.17 713.80,571.77 713.06,573.04 708.91,571.19 710.22,568.04 713.13,569.23 715.41,563.73" type="building"/>
   <poly color="red" fill="1" id="110781579" layer="-1.00" shape="781.17,693.57 777.04,691.81 778.46,688.51 773.06,686.21 774.93,681.85 781.17,693.57" type="building"/>
   <poly color="red" fill="1" id="110781580" layer="-1.00" shape="536.93,457.63 539.37,458.40 538.49,462.13 547.56,465.88 550.62,456.99 537.99,452.35 536.93,457.63" type="building"/>
   <poly color="red" fill="1" id="110781581" layer="-1.00" shape="707.12,604.33 699.86,613.24 708.20,619.77 715.65,611.31 707.12,604.33" type="building"/>
   <poly color="red" fill="1" id="110781582" layer="-1.00" shape="652.15,578.78 642.61,573.52 647.40,564.87 652.45,567.66 655.65,569.42 656.94,570.14 652.15,578.78" type="building"/>
   <poly color="red" fill="1" id="110781583" layer="-1.00" shape="553.55,654.53 555.52,647.39 553.18,646.75 552.93,647.64 552.12,650.68 551.34,653.83 553.55,654.53" type="building"/>
   <poly color="red" fill="1" id="110781584" layer="-1.00" shape="718.83,520.69 730.31,525.51 725.90,536.06 725.49,537.05 714.36,532.34 718.83,520.69" type="building"/>
   <poly color="red" fill="1" id="110781585" layer="-1.00" shape="700.14,557.42 715.41,563.73 713.13,569.23 710.22,568.04 708.91,571.19 702.93,568.72 700.11,575.52 696.78,574.15 698.18,570.77 695.12,569.50 695.74,568.00 700.14,557.42" type="building"/>