<?xml version="1.0" encoding="utf-8"?><!-- generated on 10/11/17 17:54:08 by SUMO netconvert Version 0.25.0
<?xml version="1.0" encoding="UTF-8"?>

<configuration xmlns:xsi="http://www.w3.org/2001/XMLSchema-instance" xsi:noNamespaceSchemaLocation="http://sumo.dlr.de/xsd/netconvertConfiguration.xsd">

    <input>
        <type-files value="osmNetconvert.typ.xml"/>
        <osm-files value="IN_Altstadt_historical_800.osm"/>
    </input>

    <output>
        <output-file value="IN_Altstadt_historical_800.net.xml"/>
    </output>

    <projection>
        <proj.utm value="true"/>
    </projection>

    <edge_removal>
        <remove-edges.by-type value="highway.track,highway.unsurfaced,highway.raceway,highway.bridleway,highway.path,highway.footway,highway.pedestrian,highway.cycleway,highway.step,highway.steps,highway.stairs,highway.bus_guideway,highway.ford,railway.rail,railway.tram,railway.light_rail,railway.subway,railway.preserved,railway.narrow_gauge,railway.monorail,railway.funicular"/>
    </edge_removal>

</configuration>
-->
<net version="0.25">
   <location convBoundary="0.00,0.00,794.18,820.27" netOffset="-677833.18,-5403720.96" origBoundary="11.419967,48.761046,11.430899,48.768244" projParameter="+proj=utm +zone=32 +ellps=WGS84 +datum=WGS84 +units=m +no_defs"/>
   <type allow="pedestrian" id="highway.bridleway" numLanes="1" oneway="1" priority="1" speed="2.78" width="2.00"/>
   <type allow="bus" id="highway.bus_guideway" numLanes="1" oneway="1" priority="1" speed="8.33"/>
   <type allow="bicycle" id="highway.cycleway" numLanes="1" oneway="0" priority="1" speed="5.56" width="1.00"/>
   <type allow="pedestrian" id="highway.footway" numLanes="1" oneway="1" priority="1" speed="8.33" width="2.00"/>
   <type allow="army" id="highway.ford" numLanes="1" oneway="0" priority="1" speed="2.78"/>
   <type disallow="tram rail_urban rail rail_electric ship" id="highway.living_street" numLanes="1" oneway="0" priority="3" speed="2.78"/>
   <type allow="private emergency authority army vip passenger hov taxi bus coach delivery truck trailer motorcycle evehicle custom1 custom2" id="highway.motorway" numLanes="2" oneway="1" priority="13" speed="44.44"/>
   <type allow="private emergency authority army vip passenger hov taxi bus coach delivery truck trailer motorcycle evehicle custom1 custom2" id="highway.motorway_link" numLanes="1" oneway="1" priority="12" speed="22.22"/>
   <type allow="bicycle pedestrian" id="highway.path" numLanes="1" oneway="1" priority="1" speed="2.78" width="2.00"/>
   <type allow="pedestrian" id="highway.pedestrian" numLanes="1" oneway="1" priority="1" speed="8.33" width="2.00"/>
   <type disallow="tram rail_urban rail rail_electric ship" id="highway.primary" numLanes="2" oneway="0" priority="9" speed="27.78"/>
   <type disallow="tram rail_urban rail rail_electric ship" id="highway.primary_link" numLanes="1" oneway="0" priority="8" speed="22.22"/>
   <type allow="vip" id="highway.raceway" numLanes="2" oneway="0" priority="14" speed="83.33"/>
   <type disallow="tram rail_urban rail rail_electric ship" id="highway.residential" numLanes="1" oneway="0" priority="4" speed="13.89"/>
   <type disallow="tram rail_urban rail rail_electric ship" id="highway.secondary" numLanes="2" oneway="0" priority="7" speed="27.78"/>
   <type disallow="tram rail_urban rail rail_electric ship" id="highway.secondary_link" numLanes="1" oneway="0" priority="6" speed="22.22"/>
   <type allow="delivery bicycle pedestrian" id="highway.service" numLanes="1" oneway="0" priority="2" speed="5.56"/>
   <type disallow="tram rail_urban rail rail_electric ship" id="highway.services" numLanes="1" oneway="0" priority="1" speed="8.33"/>
   <type allow="pedestrian" id="highway.stairs" numLanes="1" oneway="1" priority="1" speed="1.39" width="2.00"/>
   <type allow="pedestrian" id="highway.step" numLanes="1" oneway="1" priority="1" speed="1.39" width="2.00"/>
   <type allow="pedestrian" id="highway.steps" numLanes="1" oneway="1" priority="1" speed="1.39" width="2.00"/>
   <type disallow="tram rail_urban rail rail_electric ship" id="highway.tertiary" numLanes="1" oneway="0" priority="6" speed="22.22"/>
   <type disallow="tram rail_urban rail rail_electric ship" id="highway.tertiary_link" numLanes="1" oneway="0" priority="5" speed="22.22"/>
   <type disallow="tram rail_urban rail rail_electric ship" id="highway.track" numLanes="1" oneway="0" priority="1" speed="5.56"/>
   <type disallow="tram rail_urban rail rail_electric bicycle pedestrian ship" id="highway.trunk" numLanes="2" oneway="0" priority="11" speed="27.78"/>
   <type disallow="tram rail_urban rail rail_electric bicycle pedestrian ship" id="highway.trunk_link" numLanes="1" oneway="0" priority="10" speed="22.22"/>
   <type disallow="tram rail_urban rail rail_electric ship" id="highway.unclassified" numLanes="1" oneway="0" priority="5" speed="13.89"/>
   <type disallow="tram rail_urban rail rail_electric ship" id="highway.unsurfaced" numLanes="1" oneway="0" priority="1" speed="8.33"/>
   <type allow="rail_urban" id="railway.light_rail" numLanes="1" oneway="1" priority="15" speed="27.78"/>
   <type allow="rail" id="railway.preserved" numLanes="1" oneway="1" priority="15" speed="27.78"/>
   <type allow="rail rail_electric" id="railway.rail" numLanes="1" oneway="1" priority="15" speed="83.33"/>
   <type allow="rail_urban" id="railway.subway" numLanes="1" oneway="1" priority="15" speed="27.78"/>
   <type allow="tram" id="railway.tram" numLanes="1" oneway="1" priority="15" speed="13.89"/>
   <edge function="internal" id=":1025587626_0">
      <lane disallow="tram rail_urban rail rail_electric ship" id=":1025587626_0_0" index="0" length="5.25" shape="606.05,92.92 606.48,87.68" speed="9.72"/>
   </edge>
   <edge function="internal" id=":1025587626_1">
      <lane disallow="tram rail_urban rail rail_electric ship" id=":1025587626_1_0" index="0" length="14.12" shape="606.05,92.92 606.34,87.93 607.52,85.75 609.57,86.38 612.49,89.82" speed="9.72"/>
   </edge>
   <edge function="internal" id=":1025587626_2">
      <lane disallow="tram rail_urban rail rail_electric ship" id=":1025587626_2_0" index="0" length="5.20" shape="609.78,91.70 606.48,87.68" speed="13.89"/>
   </edge>
   <edge function="internal" id=":1025587626_3">
      <lane disallow="tram rail_urban rail rail_electric ship" id=":1025587626_3_0" index="0" length="2.30" shape="609.78,91.70 609.75,90.21 610.14,89.50" speed="13.89"/>
   </edge>
   <edge function="internal" id=":1025587626_6">
      <lane id=":1025587626_6_0" index="0" length="2.52" shape="610.14,89.50 610.20,89.40 611.11,89.27 612.49,89.82" speed="13.89"/>
   </edge>
   <edge function="internal" id=":1025587626_4">
      <lane disallow="tram rail_urban rail rail_electric ship" id=":1025587626_4_0" index="0" length="4.88" shape="609.37,86.07 612.49,89.82" speed="13.89"/>
   </edge>
   <edge function="internal" id=":1025587626_5">
      <lane disallow="tram rail_urban rail rail_electric ship" id=":1025587626_5_0" index="0" length="2.13" shape="609.37,86.07 609.25,87.56 608.89,88.09" speed="13.89"/>
   </edge>
   <edge function="internal" id=":1025587626_7">
      <lane id=":1025587626_7_0" index="0" length="2.69" shape="608.89,88.09 608.73,88.32 607.81,88.36 606.48,87.68" speed="13.89"/>
   </edge>
   <edge function="internal" id=":1031765029_0">
      <lane allow="delivery bicycle pedestrian" id=":1031765029_0_0" index="0" length="5.21" shape="425.69,744.08 425.30,742.67 424.55,741.80 423.46,741.48 422.01,741.71" speed="6.95"/>
   </edge>
   <edge function="internal" id=":1031765029_1">
      <lane disallow="tram rail_urban rail rail_electric ship" id=":1031765029_1_0" index="0" length="8.70" shape="425.69,744.08 424.53,735.46" speed="8.33"/>
   </edge>
   <edge function="internal" id=":1031765029_2">
      <lane disallow="tram rail_urban rail rail_electric ship" id=":1031765029_2_0" index="0" length="2.41" shape="425.69,744.08 426.35,742.74 427.12,742.23" speed="8.33"/>
   </edge>
   <edge function="internal" id=":1031765029_9">
      <lane id=":1031765029_9_0" index="0" length="2.41" shape="427.12,742.23 427.99,742.53 428.97,743.65" speed="8.33"/>
   </edge>
   <edge function="internal" id=":1031765029_3">
      <lane disallow="tram rail_urban rail rail_electric ship" id=":1031765029_3_0" index="0" length="9.44" shape="427.69,734.30 428.97,743.65" speed="8.33"/>
   </edge>
   <edge function="internal" id=":1031765029_4">
      <lane allow="delivery bicycle pedestrian" id=":1031765029_4_0" index="0" length="4.79" shape="427.69,734.30 427.63,736.80 426.66,738.87" speed="6.95"/>
   </edge>
   <edge function="internal" id=":1031765029_5">
      <lane disallow="tram rail_urban rail rail_electric ship" id=":1031765029_5_0" index="0" length="2.89" shape="427.69,734.30 427.34,735.77 426.69,736.46 426.27,736.41" speed="8.33"/>
   </edge>
   <edge function="internal" id=":1031765029_10">
      <lane id=":1031765029_10_0" index="0" length="5.51" shape="426.66,738.87 424.79,740.50 422.01,741.71" speed="6.95"/>
   </edge>
   <edge function="internal" id=":1031765029_11">
      <lane id=":1031765029_11_0" index="0" length="2.04" shape="426.27,736.41 425.75,736.36 424.53,735.46" speed="8.33"/>
   </edge>
   <edge function="internal" id=":1031765029_6">
      <lane disallow="tram rail_urban rail rail_electric ship" id=":1031765029_6_0" index="0" length="5.03" shape="421.05,738.55 422.67,737.93 423.79,737.20 424.41,736.38 424.53,735.46" speed="6.95"/>
   </edge>
   <edge function="internal" id=":1031765029_7">
      <lane disallow="tram rail_urban rail rail_electric ship" id=":1031765029_7_0" index="0" length="11.20" shape="421.05,738.55 424.15,738.07 426.51,738.76 428.11,740.62 428.97,743.65" speed="6.95"/>
   </edge>
   <edge function="internal" id=":1031765029_8">
      <lane allow="delivery bicycle pedestrian" id=":1031765029_8_0" index="0" length="4.82" shape="421.05,738.55 422.47,738.98 423.11,739.65 422.95,740.56 422.01,741.71" speed="5.56"/>
   </edge>
   <edge function="internal" id=":1031765607_0">
      <lane allow="delivery bicycle pedestrian" id=":1031765607_0_0" index="0" length="0.10" shape="408.86,766.27 408.86,766.27" speed="5.56"/>
   </edge>
   <edge function="internal" id=":1031765830_0">
      <lane allow="delivery bicycle pedestrian" id=":1031765830_0_0" index="0" length="29.55" shape="420.90,742.05 418.15,746.98 416.39,756.39 414.58,765.53 411.71,769.63" speed="5.56"/>
   </edge>
   <edge function="internal" id=":1031765830_1">
      <lane allow="delivery bicycle pedestrian" id=":1031765830_1_0" index="0" length="4.82" shape="420.90,742.05 419.47,741.62 418.84,740.95 418.99,740.04 419.93,738.89" speed="5.56"/>
   </edge>
   <edge function="internal" id=":1031765830_2">
      <lane allow="delivery bicycle pedestrian" id=":1031765830_2_0" index="0" length="29.98" shape="408.96,766.28 412.10,762.44 414.51,753.34 416.90,743.86 419.93,738.89" speed="5.56"/>
   </edge>
   <edge function="internal" id=":1031765830_3">
      <lane allow="delivery bicycle pedestrian" id=":1031765830_3_0" index="0" length="29.90" shape="408.96,766.28 420.75,767.78 425.14,768.83 422.13,769.45 411.71,769.63" speed="5.56"/>
   </edge>
   <edge function="internal" id=":1031766302_0">
      <lane allow="delivery bicycle pedestrian" id=":1031766302_0_0" index="0" length="0.10" shape="408.98,769.63 408.98,769.63" speed="5.56"/>
   </edge>
   <edge function="internal" id=":1031988047_0">
      <lane disallow="tram rail_urban rail rail_electric ship" id=":1031988047_0_0" index="0" length="4.67" shape="91.06,643.94 90.79,642.49 90.87,641.31 91.29,640.40 92.07,639.76" speed="6.95"/>
   </edge>
   <edge function="internal" id=":1031988047_1">
      <lane allow="delivery bicycle pedestrian" id=":1031988047_1_0" index="0" length="4.82" shape="91.06,643.94 91.52,642.53 92.20,641.91 93.11,642.08 94.24,643.05" speed="5.56"/>
   </edge>
   <edge function="internal" id=":1031988047_2">
      <lane disallow="tram rail_urban rail rail_electric ship" id=":1031988047_2_0" index="0" length="5.20" shape="87.36,641.99 92.07,639.76" speed="8.33"/>
   </edge>
   <edge function="internal" id=":1031988047_3">
      <lane allow="delivery bicycle pedestrian" id=":1031988047_3_0" index="0" length="8.07" shape="87.36,641.99 89.97,641.03 91.99,640.89 93.41,641.57 94.24,643.05" speed="6.95"/>
   </edge>
   <edge function="internal" id=":1031988351_0">
      <lane disallow="tram rail_urban rail rail_electric ship" id=":1031988351_0_0" index="0" length="4.82" shape="44.53,788.48 43.06,788.74 42.19,788.42 41.92,787.54 42.25,786.09" speed="8.33"/>
   </edge>
   <edge function="internal" id=":1031988583_0">
      <lane disallow="tram rail_urban rail rail_electric ship" id=":1031988583_0_0" index="0" length="0.80" shape="12.41,706.53 12.05,705.81" speed="13.89"/>
   </edge>
   <edge function="internal" id=":1168659759_0">
      <lane disallow="tram rail_urban rail rail_electric ship" id=":1168659759_0_0" index="0" length="1.29" shape="188.47,249.97 188.66,249.70 188.89,249.48 189.16,249.32 189.48,249.21" speed="8.33"/>
   </edge>
   <edge function="internal" id=":1168659763_0">
      <lane disallow="tram rail_urban rail rail_electric ship" id=":1168659763_0_0" index="0" length="0.10" shape="334.05,146.95 334.05,146.95" speed="8.33"/>
   </edge>
   <edge function="internal" id=":1196936303_0">
      <lane disallow="tram rail_urban rail rail_electric ship" id=":1196936303_0_0" index="0" length="4.82" shape="434.64,264.71 433.69,263.57 433.53,262.66 434.16,261.99 435.58,261.55" speed="2.78"/>
   </edge>
   <edge function="internal" id=":1196936324_0">
      <lane disallow="tram rail_urban rail rail_electric ship" id=":1196936324_0_0" index="0" length="0.84" shape="384.24,239.10 383.75,238.42" speed="8.33"/>
   </edge>
   <edge function="internal" id=":1196936324_1">
      <lane disallow="tram rail_urban rail rail_electric ship" id=":1196936324_1_0" index="0" length="1.96" shape="384.24,239.10 384.57,237.65 384.89,237.30" speed="8.33"/>
   </edge>
   <edge function="internal" id=":1196936324_4">
      <lane id=":1196936324_4_0" index="0" length="2.86" shape="384.89,237.30 385.20,236.97 386.12,237.06 387.33,237.93" speed="8.33"/>
   </edge>
   <edge function="internal" id=":1196936324_2">
      <lane disallow="tram rail_urban rail rail_electric ship" id=":1196936324_2_0" index="0" length="2.58" shape="385.81,235.84 387.33,237.93" speed="8.33"/>
   </edge>
   <edge function="internal" id=":1196936324_3">
      <lane disallow="tram rail_urban rail rail_electric ship" id=":1196936324_3_0" index="0" length="2.41" shape="385.81,235.84 386.26,237.26 386.07,238.16" speed="8.33"/>
   </edge>
   <edge function="internal" id=":1196936324_5">
      <lane id=":1196936324_5_0" index="0" length="2.41" shape="386.07,238.16 385.23,238.55 383.75,238.42" speed="8.33"/>
   </edge>
   <edge function="internal" id=":1196936357_0">
      <lane disallow="tram rail_urban rail rail_electric ship" id=":1196936357_0_0" index="0" length="5.64" shape="365.53,209.75 362.90,214.74" speed="5.56"/>
   </edge>
   <edge function="internal" id=":1196936357_1">
      <lane disallow="tram rail_urban rail rail_electric ship" id=":1196936357_1_0" index="0" length="2.41" shape="365.53,209.75 364.18,210.37 363.26,210.28" speed="5.56"/>
   </edge>
   <edge function="internal" id=":1196936357_5">
      <lane id=":1196936357_5_0" index="0" length="2.41" shape="363.26,210.28 362.78,209.49 362.73,208.01" speed="5.56"/>
   </edge>
   <edge function="internal" id=":1196936357_2">
      <lane disallow="tram rail_urban rail rail_electric ship" id=":1196936357_2_0" index="0" length="5.19" shape="358.19,209.31 359.60,209.66 360.83,209.56 361.87,209.01 362.73,208.01" speed="6.94"/>
   </edge>
   <edge function="internal" id=":1196936357_3">
      <lane disallow="tram rail_urban rail rail_electric ship" id=":1196936357_3_0" index="0" length="6.04" shape="359.91,213.34 362.73,208.01" speed="5.56"/>
   </edge>
   <edge function="internal" id=":1196936357_4">
      <lane disallow="tram rail_urban rail rail_electric ship" id=":1196936357_4_0" index="0" length="2.55" shape="359.91,213.34 361.18,212.57 362.10,212.55 362.19,212.66" speed="5.56"/>
   </edge>
   <edge function="internal" id=":1196936357_6">
      <lane id=":1196936357_6_0" index="0" length="2.27" shape="362.19,212.66 362.67,213.27 362.90,214.74" speed="5.56"/>
   </edge>
   <edge function="internal" id=":1214907576_0">
      <lane disallow="tram rail_urban rail rail_electric ship" id=":1214907576_0_0" index="0" length="0.10" shape="359.40,664.73 359.39,664.73" speed="8.33"/>
   </edge>
   <edge function="internal" id=":1214907576_1">
      <lane disallow="tram rail_urban rail rail_electric ship" id=":1214907576_1_0" index="0" length="2.41" shape="359.40,664.73 358.27,663.76 357.96,662.90" speed="8.33"/>
   </edge>
   <edge function="internal" id=":1214907576_4">
      <lane id=":1214907576_4_0" index="0" length="2.41" shape="357.96,662.90 358.46,662.12 359.79,661.45" speed="8.33"/>
   </edge>
   <edge function="internal" id=":1214907576_2">
      <lane disallow="tram rail_urban rail rail_electric ship" id=":1214907576_2_0" index="0" length="0.10" shape="359.82,661.45 359.79,661.45" speed="8.33"/>
   </edge>
   <edge function="internal" id=":1214907576_3">
      <lane disallow="tram rail_urban rail rail_electric ship" id=":1214907576_3_0" index="0" length="2.41" shape="359.82,661.45 360.94,662.43 361.24,663.31" speed="8.33"/>
   </edge>
   <edge function="internal" id=":1214907576_5">
      <lane id=":1214907576_5_0" index="0" length="2.41" shape="361.24,663.31 360.72,664.07 359.39,664.73" speed="8.33"/>
   </edge>
   <edge function="internal" id=":1214907578_0">
      <lane disallow="tram rail_urban rail rail_electric ship" id=":1214907578_0_0" index="0" length="0.10" shape="338.03,661.95 338.03,661.95" speed="8.33"/>
   </edge>
   <edge function="internal" id=":1214907578_1">
      <lane disallow="tram rail_urban rail rail_electric ship" id=":1214907578_1_0" index="0" length="2.41" shape="338.03,661.95 336.91,660.98 336.61,660.11" speed="8.33"/>
   </edge>
   <edge function="internal" id=":1214907578_4">
      <lane id=":1214907578_4_0" index="0" length="2.41" shape="336.61,660.11 337.12,659.34 338.45,658.68" speed="8.33"/>
   </edge>
   <edge function="internal" id=":1214907578_2">
      <lane disallow="tram rail_urban rail rail_electric ship" id=":1214907578_2_0" index="0" length="0.10" shape="338.46,658.68 338.45,658.68" speed="8.33"/>
   </edge>
   <edge function="internal" id=":1214907578_3">
      <lane disallow="tram rail_urban rail rail_electric ship" id=":1214907578_3_0" index="0" length="2.41" shape="338.46,658.68 339.58,659.66 339.88,660.53" speed="8.33"/>
   </edge>
   <edge function="internal" id=":1214907578_5">
      <lane id=":1214907578_5_0" index="0" length="2.41" shape="339.88,660.53 339.36,661.30 338.03,661.95" speed="8.33"/>
   </edge>
   <edge function="internal" id=":1234735049_0">
      <lane disallow="tram rail_urban rail rail_electric ship" id=":1234735049_0_0" index="0" length="0.10" shape="535.94,77.71 535.94,77.71" speed="8.33"/>
   </edge>
   <edge function="internal" id=":1236989530_0">
      <lane disallow="tram rail_urban rail rail_electric ship" id=":1236989530_0_0" index="0" length="0.10" shape="274.90,655.08 274.89,655.08" speed="8.33"/>
   </edge>
   <edge function="internal" id=":1236989530_1">
      <lane disallow="tram rail_urban rail rail_electric ship" id=":1236989530_1_0" index="0" length="2.41" shape="274.90,655.08 273.70,654.19 273.33,653.35" speed="8.33"/>
   </edge>
   <edge function="internal" id=":1236989530_4">
      <lane id=":1236989530_4_0" index="0" length="2.41" shape="273.33,653.35 273.78,652.54 275.06,651.78" speed="8.33"/>
   </edge>
   <edge function="internal" id=":1236989530_2">
      <lane disallow="tram rail_urban rail rail_electric ship" id=":1236989530_2_0" index="0" length="0.10" shape="275.08,651.78 275.06,651.78" speed="8.33"/>
   </edge>
   <edge function="internal" id=":1236989530_3">
      <lane disallow="tram rail_urban rail rail_electric ship" id=":1236989530_3_0" index="0" length="2.41" shape="275.08,651.78 276.27,652.68 276.63,653.53" speed="8.33"/>
   </edge>
   <edge function="internal" id=":1236989530_5">
      <lane id=":1236989530_5_0" index="0" length="2.41" shape="276.63,653.53 276.17,654.33 274.89,655.08" speed="8.33"/>
   </edge>
   <edge function="internal" id=":1236989532_0">
      <lane disallow="tram rail_urban rail rail_electric ship" id=":1236989532_0_0" index="0" length="0.10" shape="421.86,706.05 421.86,706.04" speed="8.33"/>
   </edge>
   <edge function="internal" id=":1237044905_0">
      <lane disallow="tram rail_urban rail rail_electric ship" id=":1237044905_0_0" index="0" length="0.10" shape="316.47,485.97 316.47,485.97" speed="8.33"/>
   </edge>
   <edge function="internal" id=":1241901611_0">
      <lane disallow="tram rail_urban rail rail_electric ship" id=":1241901611_0_0" index="0" length="0.10" shape="413.95,565.72 413.95,565.72" speed="8.33"/>
   </edge>
   <edge function="internal" id=":1242949433_0">
      <lane disallow="tram rail_urban rail rail_electric ship" id=":1242949433_0_0" index="0" length="0.11" shape="180.50,651.50 180.46,651.60" speed="8.33"/>
   </edge>
   <edge function="internal" id=":1242949433_1">
      <lane disallow="tram rail_urban rail rail_electric ship" id=":1242949433_1_0" index="0" length="2.41" shape="180.50,651.50 179.29,652.36 178.37,652.45" speed="8.33"/>
   </edge>
   <edge function="internal" id=":1242949433_4">
      <lane id=":1242949433_4_0" index="0" length="2.41" shape="178.37,652.45 177.74,651.78 177.41,650.33" speed="8.33"/>
   </edge>
   <edge function="internal" id=":1242949433_2">
      <lane disallow="tram rail_urban rail rail_electric ship" id=":1242949433_2_0" index="0" length="0.34" shape="177.30,650.65 177.41,650.33" speed="8.33"/>
   </edge>
   <edge function="internal" id=":1242949433_3">
      <lane disallow="tram rail_urban rail rail_electric ship" id=":1242949433_3_0" index="0" length="2.41" shape="177.30,650.65 178.45,649.70 179.36,649.55" speed="8.33"/>
   </edge>
   <edge function="internal" id=":1242949433_5">
      <lane id=":1242949433_5_0" index="0" length="2.41" shape="179.36,649.55 180.03,650.18 180.46,651.60" speed="8.33"/>
   </edge>
   <edge function="internal" id=":1242949435_0">
      <lane disallow="tram rail_urban rail rail_electric ship" id=":1242949435_0_0" index="0" length="0.10" shape="200.25,607.58 200.24,607.60" speed="8.33"/>
   </edge>
   <edge function="internal" id=":1242949435_1">
      <lane disallow="tram rail_urban rail rail_electric ship" id=":1242949435_1_0" index="0" length="2.41" shape="200.25,607.58 198.98,608.35 198.06,608.38" speed="8.33"/>
   </edge>
   <edge function="internal" id=":1242949435_4">
      <lane id=":1242949435_4_0" index="0" length="2.41" shape="198.06,608.38 197.48,607.65 197.26,606.18" speed="8.33"/>
   </edge>
   <edge function="internal" id=":1242949435_2">
      <lane disallow="tram rail_urban rail rail_electric ship" id=":1242949435_2_0" index="0" length="0.10" shape="197.27,606.16 197.26,606.18" speed="8.33"/>
   </edge>
   <edge function="internal" id=":1242949435_3">
      <lane disallow="tram rail_urban rail rail_electric ship" id=":1242949435_3_0" index="0" length="2.41" shape="197.27,606.16 198.56,605.40 199.48,605.39" speed="8.33"/>
   </edge>
   <edge function="internal" id=":1242949435_5">
      <lane id=":1242949435_5_0" index="0" length="2.41" shape="199.48,605.39 200.04,606.13 200.24,607.60" speed="8.33"/>
   </edge>
   <edge function="internal" id=":1243297639_0">
      <lane disallow="tram rail_urban rail rail_electric ship" id=":1243297639_0_0" index="0" length="0.10" shape="345.53,770.26 345.53,770.26" speed="8.33"/>
   </edge>
   <edge function="internal" id=":1243297652_0">
      <lane disallow="tram rail_urban rail rail_electric ship" id=":1243297652_0_0" index="0" length="0.10" shape="323.39,767.58 323.39,767.58" speed="8.33"/>
   </edge>
   <edge function="internal" id=":1243297654_0">
      <lane disallow="tram rail_urban rail rail_electric ship" id=":1243297654_0_0" index="0" length="0.10" shape="251.44,758.43 251.44,758.43" speed="8.33"/>
   </edge>
   <edge function="internal" id=":1246262926_0">
      <lane disallow="tram rail_urban rail rail_electric ship" id=":1246262926_0_0" index="0" length="3.41" shape="409.55,667.32 412.33,669.30" speed="8.33"/>
   </edge>
   <edge function="internal" id=":1246262926_1">
      <lane disallow="tram rail_urban rail rail_electric ship" id=":1246262926_1_0" index="0" length="4.82" shape="409.55,667.32 410.68,668.29 410.99,669.16 410.49,669.93 409.16,670.60" speed="8.33"/>
   </edge>
   <edge function="internal" id=":1264133295_0">
      <lane disallow="tram rail_urban rail rail_electric ship" id=":1264133295_0_0" index="0" length="5.24" shape="418.47,521.91 417.01,521.67 415.92,521.99 415.17,522.86 414.79,524.28" speed="6.95"/>
   </edge>
   <edge function="internal" id=":1264133295_1">
      <lane allow="delivery bicycle pedestrian" id=":1264133295_1_0" index="0" length="4.82" shape="418.47,521.91 417.54,520.75 417.39,519.84 418.03,519.18 419.46,518.77" speed="5.56"/>
   </edge>
   <edge function="internal" id=":1264133295_2">
      <lane allow="delivery bicycle pedestrian" id=":1264133295_2_0" index="0" length="5.51" shape="416.38,514.90 416.34,516.15 416.85,517.22 417.88,518.09 419.46,518.77" speed="6.95"/>
   </edge>
   <edge function="internal" id=":1264133295_3">
      <lane disallow="tram rail_urban rail rail_electric ship" id=":1264133295_3_0" index="0" length="9.52" shape="416.38,514.90 414.79,524.28" speed="8.33"/>
   </edge>
   <edge function="internal" id=":1264133552_0">
      <lane disallow="tram rail_urban rail rail_electric ship" id=":1264133552_0_0" index="0" length="7.05" shape="700.67,631.42 695.46,636.17" speed="8.33"/>
   </edge>
   <edge function="internal" id=":1264133552_1">
      <lane disallow="tram rail_urban rail rail_electric ship" id=":1264133552_1_0" index="0" length="8.25" shape="700.67,631.42 698.55,633.25 696.65,634.19 694.99,634.25 693.55,633.41" speed="5.56"/>
   </edge>
   <edge function="internal" id=":1264133552_2">
      <lane disallow="tram rail_urban rail rail_electric ship" id=":1264133552_2_0" index="0" length="6.13" shape="695.84,631.04 696.89,632.40 697.18,633.71 696.70,634.96 695.46,636.17" speed="5.56"/>
   </edge>
   <edge function="internal" id=":1264133552_3">
      <lane disallow="tram rail_urban rail rail_electric ship" id=":1264133552_3_0" index="0" length="4.82" shape="695.84,631.04 696.15,632.49 695.88,633.37 695.01,633.68 693.55,633.41" speed="2.78"/>
   </edge>
   <edge function="internal" id=":1387938861_0">
      <lane disallow="tram rail_urban rail rail_electric ship" id=":1387938861_0_0" index="0" length="0.10" shape="31.27,623.02 31.27,623.02" speed="8.33"/>
   </edge>
   <edge function="internal" id=":1390939501_0">
      <lane disallow="tram rail_urban rail rail_electric ship" id=":1390939501_0_0" index="0" length="23.89" shape="586.24,200.24 581.77,202.73 575.55,205.47 569.18,207.93 564.30,209.56" speed="8.33"/>
   </edge>
   <edge function="internal" id=":1390939501_1">
      <lane disallow="tram rail_urban rail rail_electric ship" id=":1390939501_1_0" index="0" length="2.74" shape="586.24,200.24 584.75,200.29 583.94,199.86 583.88,199.54" speed="8.33"/>
   </edge>
   <edge function="internal" id=":1390939501_6">
      <lane id=":1390939501_6_0" index="0" length="2.08" shape="583.88,199.54 583.79,198.95 584.31,197.56" speed="8.33"/>
   </edge>
   <edge function="internal" id=":1390939501_2">
      <lane disallow="tram rail_urban rail rail_electric ship" id=":1390939501_2_0" index="0" length="23.43" shape="561.74,202.86 566.78,202.76 573.36,201.58 579.77,199.73 584.31,197.56" speed="11.11"/>
   </edge>
   <edge function="internal" id=":1390939501_3">
      <lane disallow="tram rail_urban rail rail_electric ship" id=":1390939501_3_0" index="0" length="9.44" shape="561.74,202.86 568.28,204.23 570.65,205.65" speed="11.11"/>
   </edge>
   <edge function="internal" id=":1390939501_7">
      <lane id=":1390939501_7_0" index="0" length="8.13" shape="570.65,205.65 570.89,205.80 569.56,207.58 564.30,209.56" speed="11.11"/>
   </edge>
   <edge function="internal" id=":1390939501_4">
      <lane disallow="tram rail_urban rail rail_electric ship" id=":1390939501_4_0" index="0" length="23.46" shape="562.71,206.58 567.54,205.00 573.79,202.65 579.90,200.01 584.31,197.56" speed="8.33"/>
   </edge>
   <edge function="internal" id=":1390939501_5">
      <lane disallow="tram rail_urban rail rail_electric ship" id=":1390939501_5_0" index="0" length="4.93" shape="562.71,206.58 564.23,206.73 564.99,207.28 565.02,208.22 564.30,209.56" speed="8.33"/>
   </edge>
   <edge function="internal" id=":1390939543_0">
      <lane disallow="tram rail_urban rail rail_electric ship" id=":1390939543_0_0" index="0" length="0.95" shape="533.53,239.13 533.10,239.98" speed="5.56"/>
   </edge>
   <edge function="internal" id=":1390939543_1">
      <lane disallow="tram rail_urban rail rail_electric ship" id=":1390939543_1_0" index="0" length="2.41" shape="533.53,239.13 532.31,239.98 531.39,240.07" speed="5.56"/>
   </edge>
   <edge function="internal" id=":1390939543_4">
      <lane id=":1390939543_4_0" index="0" length="2.41" shape="531.39,240.07 530.77,239.38 530.45,237.93" speed="5.56"/>
   </edge>
   <edge function="internal" id=":1390939543_2">
      <lane disallow="tram rail_urban rail rail_electric ship" id=":1390939543_2_0" index="0" length="0.31" shape="530.31,238.20 530.45,237.93" speed="5.56"/>
   </edge>
   <edge function="internal" id=":1390939543_3">
      <lane disallow="tram rail_urban rail rail_electric ship" id=":1390939543_3_0" index="0" length="2.41" shape="530.31,238.20 531.67,237.60 532.59,237.70" speed="5.56"/>
   </edge>
   <edge function="internal" id=":1390939543_5">