<?xml version="1.0" encoding="utf-8"?><!-- generated on 10/11/17 17:54:23 by SUMO polyconvert Version 0.25.0
<?xml version="1.0" encoding="UTF-8"?>

<configuration xmlns:xsi="http://www.w3.org/2001/XMLSchema-instance" xsi:noNamespaceSchemaLocation="http://sumo.dlr.de/xsd/polyconvertConfiguration.xsd">

    <input>
        <net-file value="IN_Etting_rural_800.net.xml"/>
        <osm-files value="IN_Etting_rural_800.osm"/>
        <type-file value="osmPolyconvert.typ.xml"/>
    </input>

    <output>
        <output-file value="IN_Etting_rural_800.poly.xml"/>
    </output>

    <projection>
        <proj.utm value="true"/>
    </projection>

    <processing>
        <poi-layer-offset value="5"/>
    </processing>

</configuration>
-->
<additional>
   <location convBoundary="0.00,-19.49,794.32,793.77" netOffset="-676132.93,-5408306.38" origBoundary="11.399036,48.802589,11.409664,48.809700" projParameter="+proj=utm +zone=32 +ellps=WGS84 +datum=WGS84 +units=m +no_defs"/>
   <poly color="237,199,199" fill="1" id="125604792" layer="-1.00" shape="158.20,154.46 172.99,155.09 172.81,159.39 182.19,159.78 182.39,155.14 190.17,155.46 190.35,150.92 198.60,151.26 199.10,139.17 189.83,138.77 189.74,140.93 182.17,140.61 181.99,144.95 174.09,144.62 173.88,149.53 170.25,149.37 170.41,145.54 157.45,145.00 157.19,151.05 158.34,151.10 158.20,154.46" type="amenity"/>
   <poly color="184,184,179" fill="1" id="125604878" layer="-1.00" shape="155.65,156.58 150.98,125.02 146.56,125.39 149.36,157.39 155.65,156.58" type="parking"/>
   <poly color="242,242,204" fill="1" id="125607968" layer="-3.00" shape="777.50,762.93 775.60,763.66 774.23,765.18 773.76,766.61 773.95,768.62 775.15,770.44 776.85,771.38 778.92,771.47 779.73,763.22 777.50,762.93" type="farm"/>
   <poly color="242,242,204" fill="1" id="125609835" layer="-3.00" shape="606.30,635.20 605.11,636.02 604.67,637.46 605.33,638.91 606.46,639.51 607.77,639.38 608.55,638.83 608.97,638.13 609.12,637.19 608.82,636.21 608.27,635.58 607.19,635.14 606.30,635.20" type="farm"/>
   <poly color="242,242,204" fill="1" id="125630026" layer="-3.00" shape="695.04,169.77 695.72,171.02 702.81,175.94 704.15,176.10 704.60,175.60 704.83,174.74 704.21,171.68 702.42,168.07 700.79,165.85 699.31,164.81 697.82,164.73 696.46,165.00 695.39,166.27 694.99,167.83 695.04,169.77" type="farm"/>
   <poly color="242,242,204" fill="1" id="125630038" layer="-3.00" shape="70.99,748.59 82.85,749.06 83.07,745.57 76.60,738.68 71.28,738.49 70.99,748.59" type="farm"/>
   <poly color="242,242,204" fill="1" id="125630040" layer="-3.00" shape="137.74,750.90 149.61,751.38 149.82,747.89 143.36,741.00 138.04,740.81 137.74,750.90" type="farm"/>
   <poly color="red" fill="1" id="125630120" layer="-1.00" shape="24.75,535.41 28.19,537.87 45.93,550.60 74.64,571.21 82.61,560.17 85.09,556.73 35.20,520.93 24.75,535.41" type="building"/>
   <poly color="237,199,255" fill="1" id="125630120#1" layer="-1.00" shape="24.75,535.41 28.19,537.87 45.93,550.60 74.64,571.21 82.61,560.17 85.09,556.73 35.20,520.93 24.75,535.41" type="shop"/>
   <poly color="red" fill="1" id="125630142" layer="-1.00" shape="71.87,721.41 77.48,721.59 77.57,718.84 71.95,718.67 71.87,721.41" type="building"/>
   <poly color="red" fill="0" id="125630143" layer="-1.00" shape="131.46,769.73 127.72,769.57" type="building"/>
   <poly color="red" fill="1" id="125630144" layer="-1.00" shape="59.37,744.73 59.58,738.06 51.51,737.80 51.30,744.47 59.37,744.73" type="building"/>
   <poly color="red" fill="1" id="125630146" layer="-1.00" shape="166.41,755.03 166.50,751.97 160.46,751.79 160.37,754.86 166.41,755.03" type="building"/>
   <poly color="red" fill="1" id="125630152" layer="-1.00" shape="27.53,621.35 26.10,608.46 11.63,610.06 13.07,622.95 27.53,621.35" type="building"/>
   <poly color="red" fill="0" id="125630154" layer="-1.00" shape="151.69,770.50 147.58,770.42" type="building"/>
   <poly color="red" fill="1" id="125630162" layer="-1.00" shape="190.12,756.18 190.21,753.10 184.18,752.93 184.08,756.00 190.12,756.18" type="building"/>
   <poly color="red" fill="1" id="125630167" layer="-1.00" shape="144.63,711.56 144.72,708.90 139.11,708.72 139.02,711.38 144.63,711.56" type="building"/>
   <poly color="red" fill="1" id="125630170" layer="-1.00" shape="72.01,711.98 77.62,712.16 77.70,709.41 72.10,709.24 72.01,711.98" type="building"/>
   <poly color="red" fill="1" id="125630177" layer="-1.00" shape="62.01,736.64 62.38,724.75 49.65,724.35 49.28,736.24 62.01,736.64" type="building"/>
   <poly color="red" fill="1" id="125630185" layer="-1.00" shape="107.99,753.54 118.15,754.01 118.31,750.40 108.16,749.94 107.99,753.54" type="building"/>
   <poly color="red" fill="1" id="125630187" layer="-1.00" shape="138.94,714.13 144.55,714.30 144.63,711.56 139.02,711.38 138.94,714.13" type="building"/>
   <poly color="red" fill="1" id="125630188" layer="-1.00" shape="93.35,752.59 104.15,752.93 104.24,749.91 93.44,749.57 93.35,752.59" type="building"/>
   <poly color="red" fill="1" id="125630191" layer="-1.00" shape="172.11,713.78 146.10,712.67 145.60,724.15 171.63,725.26 172.11,713.78" type="building"/>
   <poly color="red" fill="1" id="125630194" layer="-1.00" shape="212.30,744.77 212.39,741.69 206.36,741.51 206.26,744.59 212.30,744.77" type="building"/>
   <poly color="red" fill="1" id="125630195" layer="-1.00" shape="138.47,724.35 144.08,724.52 144.17,721.78 138.56,721.60 138.47,724.35" type="building"/>
   <poly color="red" fill="1" id="125630198" layer="-1.00" shape="58.23,754.13 58.43,747.76 50.16,747.50 49.96,753.86 58.23,754.13" type="building"/>
   <poly color="red" fill="0" id="125630199" layer="-1.00" shape="16.92,571.14 14.95,553.88" type="building"/>
   <poly color="red" fill="1" id="125630202" layer="-1.00" shape="42.18,771.08 56.84,771.54 57.22,759.63 42.55,759.17 42.18,771.08" type="building"/>
   <poly color="red" fill="1" id="125630204" layer="-1.00" shape="122.81,761.87 108.95,761.44 108.60,772.79 122.46,773.22 122.81,761.87" type="building"/>
   <poly color="red" fill="1" id="125630206" layer="-1.00" shape="21.84,738.15 26.47,738.26 26.55,735.07 21.92,734.96 21.84,738.15" type="building"/>
   <poly color="red" fill="1" id="125630207" layer="-1.00" shape="30.43,730.28 30.57,725.99 27.72,725.90 27.59,730.20 30.43,730.28" type="building"/>
   <poly color="red" fill="1" id="125630215" layer="-1.00" shape="28.62,675.84 29.87,645.47 16.80,644.93 15.56,675.31 28.62,675.84" type="building"/>
   <poly color="red" fill="1" id="125630216" layer="-1.00" shape="211.97,750.79 212.05,747.72 206.01,747.54 205.92,750.61 211.97,750.79" type="building"/>
   <poly color="red" fill="1" id="125630217" layer="-1.00" shape="104.71,711.08 78.69,709.97 78.21,721.44 104.22,722.55 104.71,711.08" type="building"/>
   <poly color="red" fill="1" id="125630218" layer="-1.00" shape="144.17,721.78 144.26,719.12 138.64,718.94 138.56,721.60 144.17,721.78" type="building"/>
   <poly color="red" fill="1" id="125630220" layer="-1.00" shape="14.34,730.90 15.26,742.35 14.34,730.90" type="building"/>
   <poly color="red" fill="0" id="125630224" layer="-1.00" shape="145.85,765.65 132.46,765.22" type="building"/>
   <poly color="red" fill="1" id="125630228" layer="-1.00" shape="19.91,583.55 4.75,599.72 21.49,597.89 19.91,583.55" type="building"/>
   <poly color="red" fill="1" id="125630230" layer="-1.00" shape="61.31,702.10 61.45,697.87 55.26,697.68 55.12,701.90 61.31,702.10" type="building"/>
   <poly color="red" fill="1" id="125630232" layer="-1.00" shape="60.39,721.24 60.53,717.00 54.33,716.81 54.20,721.04 60.39,721.24" type="building"/>
   <poly color="red" fill="1" id="125630238" layer="-1.00" shape="127.72,769.57 122.84,769.36 127.72,769.57" type="building"/>
   <poly color="red" fill="1" id="125630239" layer="-1.00" shape="190.89,774.83 191.20,764.64 170.30,764.01 170.21,766.80 169.99,774.21 190.89,774.83" type="building"/>
   <poly color="red" fill="1" id="125630241" layer="-1.00" shape="85.64,760.04 85.37,767.74 89.06,767.88 89.17,764.73 89.34,760.18 85.64,760.04" type="building"/>
   <poly color="red" fill="1" id="125630242" layer="-1.00" shape="153.02,762.72 152.85,768.50 155.97,768.60 156.04,766.38 156.14,762.82 153.02,762.72" type="building"/>
   <poly color="red" fill="0" id="125630245" layer="-1.00" shape="101.30,765.15 89.17,764.73 89.06,767.88" type="building"/>
   <poly color="red" fill="0" id="125630247" layer="-1.00" shape="169.99,774.21 170.21,766.80 156.04,766.38 155.97,768.60" type="building"/>
   <poly color="red" fill="1" id="125630249" layer="-1.00" shape="63.07,717.08 63.54,702.17 61.31,702.10 55.12,701.90 52.25,701.81 51.78,716.73 54.33,716.81 60.53,717.00 63.07,717.08" type="building"/>
   <poly color="194,194,130" fill="0" id="125859239" layer="-3.00" shape="772.49,203.63 705.65,114.10 676.28,79.01" type="landuse"/>
   <poly color="red" fill="1" id="133506296" layer="-1.00" shape="514.36,522.63 515.18,534.13 522.98,533.58 523.40,539.97 535.98,539.14 534.79,521.18 514.36,522.63" type="building"/>
   <poly color="237,199,199" fill="1" id="140357890" layer="-1.00" shape="337.41,53.91 332.28,44.39 320.35,50.72 319.81,49.92 310.32,56.91 309.66,56.11 303.85,60.01 313.02,77.74 333.71,66.64 334.92,62.48 337.41,53.91" type="amenity"/>
   <poly color="237,199,199" fill="1" id="140357893" layer="-1.00" shape="373.09,109.10 384.77,108.07 383.37,92.41 371.69,93.45 373.09,109.10" type="amenity"/>
   <poly color="red" fill="1" id="140357893#1" layer="-1.00" shape="373.09,109.10 384.77,108.07 383.37,92.41 371.69,93.45 373.09,109.10" type="building"/>
   <poly color="red" fill="1" id="140357894" layer="-1.00" shape="357.88,59.74 370.94,54.43 367.60,46.27 354.54,51.58 357.88,59.74" type="building"/>
   <poly color="red" fill="1" id="140357895" layer="-1.00" shape="393.78,107.85 408.80,106.76 407.93,95.02 392.92,96.11 393.78,107.85" type="building"/>
   <poly color="red" fill="1" id="140357896" layer="-1.00" shape="343.54,7.75 342.28,-0.51 333.40,0.84 334.66,9.09 343.54,7.75" type="building"/>
   <poly color="red" fill="1" id="140357897" layer="-1.00" shape="328.64,85.66 325.72,77.30 316.09,80.64 319.00,89.00 328.64,85.66" type="building"/>
   <poly color="red" fill="1" id="140357898" layer="-1.00" shape="407.11,70.95 405.44,57.07 389.55,58.99 391.23,72.86 407.11,70.95" type="building"/>
   <poly color="red" fill="1" id="140357899" layer="-1.00" shape="388.85,38.27 392.64,37.13 389.90,28.07 386.11,29.21 388.85,38.27" type="building"/>
   <poly color="red" fill="1" id="140357900" layer="-1.00" shape="384.40,77.65 380.73,57.41 346.87,63.64 347.03,84.38 384.40,77.65" type="building"/>
   <poly color="red" fill="1" id="140357901" layer="-1.00" shape="325.26,33.66 335.01,26.81 328.18,17.15 318.43,24.00 325.26,33.66" type="building"/>
   <poly color="red" fill="1" id="140357902" layer="-1.00" shape="413.50,89.90 413.26,76.24 400.58,76.45 400.82,90.11 413.50,89.90" type="building"/>
   <poly color="red" fill="1" id="140357903" layer="-1.00" shape="380.04,84.84 385.23,83.75 384.09,78.45 378.91,79.55 380.04,84.84" type="building"/>
   <poly color="red" fill="1" id="140357904" layer="-1.00" shape="382.06,57.14 394.23,53.31 389.44,38.18 377.27,42.00 382.06,57.14" type="building"/>
   <poly color="red" fill="1" id="140357905" layer="-1.00" shape="391.48,84.76 400.29,83.91 399.58,76.56 390.76,77.41 391.48,84.76" type="building"/>
   <poly color="red" fill="1" id="140357906" layer="-1.00" shape="323.13,62.27 336.63,55.09 331.37,45.26 317.86,52.43 323.13,62.27" type="building"/>
   <poly color="red" fill="1" id="140357907" layer="-1.00" shape="346.33,109.49 361.53,109.64 361.64,97.21 346.45,97.08 346.33,109.49" type="building"/>
   <poly color="red" fill="1" id="140357908" layer="-1.00" shape="312.25,112.49 316.20,111.00 314.91,100.09 307.55,102.41 312.25,112.49" type="building"/>
   <poly color="red" fill="1" id="140357909" layer="-1.00" shape="410.70,52.65 413.72,52.70 413.82,47.00 410.80,46.94 410.78,48.03 410.70,52.65" type="building"/>
   <poly color="red" fill="1" id="140357910" layer="-1.00" shape="304.23,116.21 312.25,112.49 307.55,102.41 304.51,95.89 296.47,99.62 304.23,116.21" type="building"/>
   <poly color="red" fill="1" id="140357911" layer="-1.00" shape="404.64,54.80 407.63,54.85 407.65,53.67 407.73,49.16 404.74,49.11 404.64,54.80" type="building"/>
   <poly color="red" fill="1" id="140357912" layer="-1.00" shape="306.04,57.74 309.44,55.18 310.52,56.59 319.65,49.73 310.51,37.64 297.97,47.07 306.04,57.74" type="building"/>
   <poly color="red" fill="1" id="140357913" layer="-1.00" shape="407.65,53.67 410.68,53.74 410.70,52.65 410.78,48.03 407.75,47.98 407.73,49.16 407.65,53.67" type="building"/>
   <poly color="red" fill="1" id="140357914" layer="-1.00" shape="392.90,38.00 405.51,34.21 402.27,23.51 389.66,27.30 389.90,28.07 392.64,37.13 392.90,38.00" type="building"/>
   <poly color="red" fill="1" id="140357915" layer="-1.00" shape="332.58,98.99 332.74,85.33 321.64,89.13 322.22,94.73 322.85,100.08 326.40,99.66 332.58,98.99" type="building"/>
   <poly color="red" fill="1" id="140357916" layer="-1.00" shape="304.18,60.23 313.14,77.29 319.34,74.06 311.34,58.85 310.49,59.29 309.51,57.44 304.18,60.23" type="building"/>
   <poly color="red" fill="1" id="140357917" layer="-1.00" shape="316.20,111.00 327.58,109.67 326.40,99.66 322.85,100.08 322.22,94.73 314.39,95.65 314.91,100.09 316.20,111.00" type="building"/>
   <poly color="194,194,130" fill="1" id="148857528" layer="-3.00" shape="379.26,778.68" type="landuse"/>
   <poly color="red" fill="1" id="148870726" layer="-1.00" shape="28.19,537.87 19.27,550.23 37.01,562.96 45.93,550.60 28.19,537.87" type="building"/>
   <poly color="red" fill="1" id="148870728" layer="-1.00" shape="45.93,550.60 37.01,562.96 34.13,566.95 74.26,595.75 86.49,578.82 81.60,575.31 89.15,564.86 82.61,560.17 74.64,571.21 45.93,550.60" type="building"/>
   <poly color="184,184,179" fill="1" id="148870730" layer="-1.00" shape="119.20,563.29 87.89,606.69 74.26,596.90 97.06,565.32 85.09,556.73 35.20,520.93 24.75,535.41 16.61,546.45 17.64,496.18 24.13,495.25 119.20,563.29" type="parking"/>
   <poly color="194,194,130" fill="1" id="163221691" layer="-3.00" shape="276.53,779.33" type="landuse"/>
   <poly color="194,194,130" fill="1" id="163221693" layer="-3.00" shape="403.90,768.55 379.26,778.68 380.79,746.84 403.90,768.55" type="landuse"/>
   <poly color="194,194,130" fill="1" id="163222787" layer="-3.00" shape="192.51,41.14 306.80,2.72 293.13,10.88 287.89,38.63 214.14,42.14 192.51,41.14" type="landuse"/>
   <poly color="194,194,130" fill="0" id="163222788" layer="-3.00" shape="183.70,26.92 179.31,31.89 168.89,30.23 154.19,23.54 119.61,4.47 113.31,6.49 111.34,10.40" type="landuse"/>
   <poly color="194,194,130" fill="1" id="172048384" layer="-3.00" shape="276.53,779.33 379.26,778.68 380.79,746.84 343.35,713.96 243.67,641.69 234.54,642.75 205.55,678.17 210.93,695.51 218.01,742.19 276.53,779.33" type="landuse"/>
   <poly color="red" fill="1" id="222634295" layer="-1.00" shape="515.39,571.19 522.51,571.33 522.73,564.89 523.82,564.92 525.31,564.97 527.20,564.53 528.82,563.50 530.05,562.25 530.90,560.60 530.97,551.43 515.82,551.12 515.39,571.19" type="building"/>
   <poly color="red" fill="1" id="222634297" layer="-1.00" shape="283.16,82.76 282.95,69.27 262.12,75.75 267.38,91.80 280.64,87.48 282.17,94.23 286.79,93.18 285.03,85.40 285.91,86.92 291.48,83.75 288.96,79.36 283.16,82.76" type="building"/>
   <poly color="red" fill="1" id="222634313" layer="-1.00" shape="375.50,-3.03 381.36,-6.20 375.50,-3.03" type="building"/>
   <poly color="red" fill="1" id="222634317" layer="-1.00" shape="179.55,675.01 177.17,676.88 170.29,676.90 170.34,674.91 150.72,674.46 150.47,685.73 170.08,686.17 170.14,683.72 181.15,683.72 185.26,679.39 186.72,680.56 197.99,665.79 189.28,659.19 178.02,673.97 179.55,675.01" type="building"/>
   <poly color="red" fill="1" id="222634324" layer="-1.00" shape="66.58,651.73 66.59,651.42 77.59,651.79 77.44,655.25 147.88,657.91 148.40,641.57 141.44,641.16 141.06,647.63 133.34,647.26 133.52,641.54 126.55,641.14 126.18,647.60 121.42,647.37 121.63,640.46 114.67,640.06 114.29,646.53 107.57,646.20 107.76,640.30 100.79,639.90 100.41,646.37 93.41,646.02 93.62,639.44 86.65,639.03 86.27,645.50 81.09,645.26 81.39,635.55 74.43,635.16 74.05,641.62 66.91,641.27 67.10,635.39 60.13,634.98 59.75,641.45 51.35,641.05 50.92,651.20 66.58,651.73" type="building"/>
   <poly color="red" fill="1" id="222634348" layer="-1.00" shape="90.53,741.60 103.83,742.16 104.25,732.11 90.95,731.55 90.53,741.60" type="building"/>
   <poly color="red" fill="1" id="222634354" layer="-1.00" shape="64.40,678.69 70.16,678.67 70.15,675.47 64.39,675.49 64.40,678.69" type="building"/>
   <poly color="red" fill="1" id="222634356" layer="-1.00" shape="127.97,741.38 128.66,728.40 116.78,727.77 116.09,740.75 127.97,741.38" type="building"/>
   <poly color="red" fill="1" id="222634358" layer="-1.00" shape="366.07,699.13 378.50,696.85 375.86,682.63 363.44,684.93 366.07,699.13" type="building"/>
   <poly color="red" fill="1" id="222634360" layer="-1.00" shape="491.39,543.17 496.75,542.95 496.55,538.33 491.20,538.56 491.39,543.17" type="building"/>
   <poly color="red" fill="1" id="222634363" layer="-1.00" shape="309.27,602.12 315.13,602.01 315.07,598.71 309.21,598.83 309.27,602.12" type="building"/>
   <poly color="red" fill="1" id="222634367" layer="-1.00" shape="405.20,641.21 421.93,640.35 421.27,627.94 404.55,628.80 405.20,641.21" type="building"/>
   <poly color="red" fill="1" id="222634368" layer="-1.00" shape="766.80,749.61 772.01,745.94 763.28,733.60 758.06,737.27 766.80,749.61" type="building"/>
   <poly color="red" fill="1" id="222634370" layer="-1.00" shape="503.56,763.14 506.02,760.37 503.22,757.91 500.77,760.68 503.56,763.14" type="building"/>
   <poly color="red" fill="1" id="222634371" layer="-1.00" shape="154.91,657.71 170.74,658.08 171.08,643.40 155.24,643.04 154.91,657.71" type="building"/>
   <poly color="red" fill="1" id="222634389" layer="-1.00" shape="364.09,634.51 374.98,631.98 372.73,622.32 361.84,624.85 364.09,634.51" type="building"/>
   <poly color="red" fill="1" id="222634393" layer="-1.00" shape="371.11,495.37 385.94,493.85 385.01,484.73 370.18,486.25 371.11,495.37" type="building"/>
   <poly color="red" fill="1" id="222634398" layer="-1.00" shape="403.37,475.91 419.66,474.85 418.99,464.57 402.69,465.63 403.37,475.91" type="building"/>
   <poly color="red" fill="1" id="222634402" layer="-1.00" shape="351.80,640.23 356.44,639.11 354.83,632.48 350.19,633.61 351.80,640.23" type="building"/>
   <poly color="red" fill="1" id="222634403" layer="-1.00" shape="460.93,468.24 463.83,467.92 463.14,461.67 460.24,461.99 460.93,468.24" type="building"/>
   <poly color="red" fill="1" id="222634405" layer="-1.00" shape="76.96,673.44 82.22,673.51 82.36,662.83 77.10,662.76 76.96,673.44" type="building"/>
   <poly color="red" fill="1" id="222634406" layer="-1.00" shape="118.92,699.56 118.69,702.68 125.97,703.20 126.19,700.07 118.92,699.56" type="building"/>
   <poly color="red" fill="1" id="222634412" layer="-1.00" shape="446.07,701.81 461.95,700.91 461.15,686.94 445.27,687.84 446.07,701.81" type="building"/>
   <poly color="red" fill="1" id="222634415" layer="-1.00" shape="381.03,709.68 384.97,708.65 382.22,698.08 378.27,699.10 381.03,709.68" type="building"/>
   <poly color="red" fill="1" id="222634419" layer="-1.00" shape="361.79,591.02 372.32,588.54 368.64,573.09 358.12,575.58 361.79,591.02" type="building"/>
   <poly color="red" fill="1" id="222634422" layer="-1.00" shape="777.05,745.29 770.73,736.62 777.05,745.29" type="building"/>
   <poly color="red" fill="1" id="222634423" layer="-1.00" shape="466.05,754.60 477.88,754.36 477.66,743.94 465.84,744.16 466.05,754.60" type="building"/>
   <poly color="red" fill="1" id="222634426" layer="-1.00" shape="515.05,597.67 527.67,592.16 525.83,587.98 513.21,593.49 515.05,597.67" type="building"/>
   <poly color="red" fill="1" id="222634429" layer="-1.00" shape="379.21,17.23 387.16,14.03 383.26,4.39 375.31,7.60 379.21,17.23" type="building"/>
   <poly color="red" fill="1" id="222634437" layer="-1.00" shape="459.52,569.35 474.33,568.44 473.55,556.01 458.74,556.92 459.52,569.35" type="building"/>
   <poly color="red" fill="1" id="222634438" layer="-1.00" shape="390.94,501.92 400.28,501.43 400.11,498.15 390.76,498.65 390.94,501.92" type="building"/>
   <poly color="red" fill="1" id="222634439" layer="-1.00" shape="675.51,38.52 700.11,41.11 701.33,29.72 676.72,27.12 675.51,38.52" type="building"/>
   <poly color="red" fill="1" id="222634442" layer="-1.00" shape="399.94,723.56 405.73,722.34 404.58,716.91 398.79,718.13 399.94,723.56" type="building"/>
   <poly color="red" fill="1" id="222634444" layer="-1.00" shape="403.00,547.20 402.62,537.10 395.94,537.35 396.31,547.44 403.00,547.20" type="building"/>
   <poly color="red" fill="1" id="222634445" layer="-1.00" shape="467.64,472.60 483.86,470.85 482.53,458.68 466.31,460.45 467.64,472.60" type="building"/>
   <poly color="red" fill="1" id="222634447" layer="-1.00" shape="65.41,665.67 70.12,665.50 69.91,659.56 65.20,659.72 65.41,665.67" type="building"/>
   <poly color="red" fill="1" id="222634448" layer="-1.00" shape="394.41,676.68 393.17,671.61 387.54,672.98 388.79,678.04 394.41,676.68" type="building"/>
   <poly color="red" fill="1" id="222634452" layer="-1.00" shape="454.27,611.02 470.29,609.85 469.45,598.41 453.42,599.58 454.27,611.02" type="building"/>
   <poly color="red" fill="1" id="222634455" layer="-1.00" shape="433.66,686.17 437.50,685.83 437.09,681.20 433.24,681.54 433.66,686.17" type="building"/>
   <poly color="red" fill="1" id="222634466" layer="-1.00" shape="358.53,615.84 369.63,612.83 367.07,603.46 355.97,606.47 358.53,615.84" type="building"/>
   <poly color="red" fill="1" id="222634469" layer="-1.00" shape="386.40,507.52 386.16,502.66 384.24,502.76 384.48,507.61 386.40,507.52" type="building"/>
   <poly color="red" fill="1" id="222634474" layer="-1.00" shape="166.62,747.78 173.35,747.99 173.41,746.18 166.68,745.96 166.62,747.78" type="building"/>
   <poly color="red" fill="1" id="222634476" layer="-1.00" shape="701.54,4.94 700.85,18.63 715.69,19.39 716.39,5.69 701.54,4.94" type="building"/>
   <poly color="red" fill="1" id="222634479" layer="-1.00" shape="447.85,543.18 459.77,542.47 459.28,534.26 447.36,534.97 447.85,543.18" type="building"/>
   <poly color="red" fill="1" id="222634480" layer="-1.00" shape="483.88,495.27 484.27,505.39 498.38,504.85 497.98,494.72 483.88,495.27" type="building"/>
   <poly color="red" fill="1" id="222634484" layer="-1.00" shape="514.51,718.29 528.60,711.43 523.09,700.16 508.98,707.03 514.51,718.29" type="building"/>
   <poly color="red" fill="1" id="222634498" layer="-1.00" shape="364.54,549.74 362.44,540.77 357.58,541.91 359.67,550.87 364.54,549.74" type="building"/>
   <poly color="red" fill="1" id="222634504" layer="-1.00" shape="431.17,609.74 445.22,608.78 444.36,596.16 430.31,597.11 431.17,609.74" type="building"/>
   <poly color="red" fill="1" id="222634513" layer="-1.00" shape="708.51,158.48 719.55,173.31 727.88,167.14 716.84,152.31 708.51,158.48" type="building"/>
   <poly color="red" fill="1" id="222634525" layer="-1.00" shape="359.29,678.50 364.67,677.14 363.87,674.04 358.50,675.42 359.29,678.50" type="building"/>
   <poly color="red" fill="1" id="222634526" layer="-1.00" shape="435.27,570.97 450.98,569.87 450.16,558.04 434.45,559.13 435.27,570.97" type="building"/>
   <poly color="red" fill="1" id="222634528" layer="-1.00" shape="311.82,578.17 323.10,577.69 322.53,564.34 311.25,564.80 311.82,578.17" type="building"/>
   <poly color="red" fill="1" id="222634530" layer="-1.00" shape="350.42,538.41 361.19,535.90 358.30,523.64 347.53,526.16 350.42,538.41" type="building"/>
   <poly color="red" fill="1" id="222634531" layer="-1.00" shape="138.68,63.93 142.58,59.80 138.92,56.38 135.02,60.51 138.68,63.93" type="building"/>
   <poly color="red" fill="1" id="222634534" layer="-1.00" shape="328.13,545.16 339.93,539.02 334.31,528.29 322.51,534.45 328.13,545.16" type="building"/>
   <poly color="red" fill="1" id="222634539" layer="-1.00" shape="405.13,545.78 410.68,545.40 410.14,537.48 404.58,537.86 405.13,545.78" type="building"/>
   <poly color="red" fill="1" id="222634541" layer="-1.00" shape="478.68,610.68 494.30,609.22 493.02,595.68 477.40,597.14 478.68,610.68" type="building"/>
   <poly color="red" fill="1" id="222634542" layer="-1.00" shape="455.83,463.23 459.87,462.93 459.45,457.38 455.41,457.69 455.83,463.23" type="building"/>
   <poly color="red" fill="1" id="222634544" layer="-1.00" shape="486.42,784.85 492.58,781.08 489.08,775.35 482.91,779.12 486.42,784.85" type="building"/>
   <poly color="red" fill="1" id="222634554" layer="-1.00" shape="439.13,508.50 450.27,507.56 449.48,498.21 438.34,499.14 439.13,508.50" type="building"/>
   <poly color="red" fill="1" id="222634555" layer="-1.00" shape="652.13,93.99 658.40,85.96 647.37,77.40 641.10,85.44 652.13,93.99" type="building"/>
   <poly color="red" fill="1" id="222634556" layer="-1.00" shape="133.55,677.71 138.32,677.56 138.17,672.67 133.41,672.82 133.55,677.71" type="building"/>
   <poly color="red" fill="1" id="222634559" layer="-1.00" shape="325.53,641.63 337.31,641.59 337.28,632.30 325.49,632.35 325.53,641.63" type="building"/>
   <poly color="red" fill="1" id="222634561" layer="-1.00" shape="225.48,130.48 234.97,129.37 233.31,115.19 223.83,116.29 225.48,130.48" type="building"/>
   <poly color="red" fill="1" id="222634563" layer="-1.00" shape="320.66,549.48 325.39,545.73 321.19,540.46 316.46,544.21 320.66,549.48" type="building"/>
   <poly color="red" fill="1" id="222634565" layer="-1.00" shape="333.35,522.84 339.42,521.00 336.81,512.51 330.75,514.36 333.35,522.84" type="building"/>
   <poly color="red" fill="1" id="222634566" layer="-1.00" shape="150.79,82.11 157.30,77.08 152.88,71.41 146.37,76.44 150.79,82.11" type="building"/>
   <poly color="red" fill="1" id="222634567" layer="-1.00" shape="500.15,479.47 510.28,478.90 509.98,473.50 499.84,474.07 500.15,479.47" type="building"/>
   <poly color="red" fill="1" id="222634568" layer="-1.00" shape="180.21,743.73 192.13,743.83 192.21,733.74 180.30,733.64 180.21,743.73" type="building"/>
   <poly color="red" fill="1" id="222634572" layer="-1.00" shape="320.32,597.92 326.27,597.81 326.18,593.13 320.23,593.25 320.32,597.92" type="building"/>
   <poly color="red" fill="1" id="222634574" layer="-1.00" shape="450.07,659.42 453.33,659.28 453.09,653.54 449.84,653.67 450.07,659.42" type="building"/>
   <poly color="red" fill="1" id="222634578" layer="-1.00" shape="744.10,190.36 749.94,187.37 748.30,184.17 742.45,187.16 744.10,190.36" type="building"/>
   <poly color="red" fill="1" id="222634585" layer="-1.00" shape="433.77,474.10 444.11,473.35 443.31,462.66 432.98,463.42 433.77,474.10" type="building"/>
   <poly color="red" fill="1" id="222634591" layer="-1.00" shape="135.01,57.49 141.17,47.85 127.07,38.90 120.91,48.54 135.01,57.49" type="building"/>
   <poly color="red" fill="1" id="222634593" layer="-1.00" shape="164.77,118.86 171.64,117.78 171.02,113.80 164.14,114.88 164.77,118.86" type="building"/>
   <poly color="red" fill="1" id="222634594" layer="-1.00" shape="459.40,507.26 471.53,506.25 470.68,496.08 458.56,497.07 459.40,507.26" type="building"/>
   <poly color="red" fill="1" id="222634596" layer="-1.00" shape="118.97,684.46 132.15,684.77 132.43,673.10 119.25,672.78 118.97,684.46" type="building"/>
   <poly color="red" fill="1" id="222634597" layer="-1.00" shape="367.90,595.56 373.60,594.06 372.53,590.05 366.83,591.55 367.90,595.56" type="building"/>
   <poly color="red" fill="1" id="222634598" layer="-1.00" shape="334.35,673.24 346.68,673.63 346.98,664.27 334.65,663.88 334.35,673.24" type="building"/>
   <poly color="red" fill="1" id="222634600" layer="-1.00" shape="471.84,636.48 478.44,636.12 478.11,630.00 471.51,630.35 471.84,636.48" type="building"/>
   <poly color="red" fill="1" id="222634601" layer="-1.00" shape="438.11,756.28 453.01,756.04 452.82,744.31 437.92,744.55 438.11,756.28" type="building"/>
   <poly color="red" fill="1" id="222634605" layer="-1.00" shape="331.29,564.36 339.58,561.77 336.61,552.29 328.32,554.86 331.29,564.36" type="building"/>
   <poly color="red" fill="1" id="222634609" layer="-1.00" shape="454.81,673.83 469.29,672.75 468.16,657.76 453.68,658.83 454.81,673.83" type="building"/>
   <poly color="red" fill="1" id="222634618" layer="-1.00" shape="65.21,671.79 70.36,672.15 70.57,669.21 65.42,668.85 65.21,671.79" type="building"/>
   <poly color="red" fill="1" id="222634619" layer="-1.00" shape="118.57,746.12 125.30,746.19 125.34,742.40 118.61,742.33 118.57,746.12" type="building"/>
   <poly color="red" fill="1" id="222634621" layer="-1.00" shape="43.32,647.06 49.90,647.41 50.21,641.57 43.63,641.22 43.32,647.06" type="building"/>
   <poly color="red" fill="1" id="222634622" layer="-1.00" shape="418.83,510.71 427.80,509.32 426.40,500.37 417.42,501.77 418.83,510.71" type="building"/>
   <poly color="red" fill="1" id="222634624" layer="-1.00" shape="482.25,537.44 497.56,536.24 496.79,526.38 481.48,527.59 482.25,537.44" type="building"/>
   <poly color="red" fill="1" id="222634625" layer="-1.00" shape="309.15,590.35 309.22,598.11 319.04,598.02 318.97,590.27 309.15,590.35" type="building"/>
   <poly color="red" fill="1" id="222634628" layer="-1.00" shape="511.16,745.88 517.33,744.98 516.92,742.14 510.74,743.04 511.16,745.88" type="building"/>
   <poly color="red" fill="1" id="222634632" layer="-1.00" shape="173.92,108.47 172.14,98.81 167.33,99.69 169.10,109.34 173.92,108.47" type="building"/>
   <poly color="red" fill="1" id="222634646" layer="-1.00" shape="378.55,635.06 384.40,633.55 382.63,626.77 376.78,628.29 378.55,635.06" type="building"/>
   <poly color="red" fill="1" id="222634648" layer="-1.00" shape="421.72,682.29 427.49,681.92 427.28,678.86 421.52,679.25 421.72,682.29" type="building"/>