<?xml version="1.0" encoding="utf-8"?><!-- generated on 10/11/17 17:54:19 by SUMO netconvert Version 0.25.0
<?xml version="1.0" encoding="UTF-8"?>

<configuration xmlns:xsi="http://www.w3.org/2001/XMLSchema-instance" xsi:noNamespaceSchemaLocation="http://sumo.dlr.de/xsd/netconvertConfiguration.xsd">

    <input>
        <type-files value="osmNetconvert.typ.xml"/>
        <osm-files value="IN_Etting_rural_800.osm"/>
    </input>

    <output>
        <output-file value="IN_Etting_rural_800.net.xml"/>
    </output>

    <projection>
        <proj.utm value="true"/>
    </projection>

    <edge_removal>
        <remove-edges.by-type value="highway.track,highway.unsurfaced,highway.raceway,highway.bridleway,highway.path,highway.footway,highway.pedestrian,highway.cycleway,highway.step,highway.steps,highway.stairs,highway.bus_guideway,highway.ford,railway.rail,railway.tram,railway.light_rail,railway.subway,railway.preserved,railway.narrow_gauge,railway.monorail,railway.funicular"/>
    </edge_removal>

</configuration>
-->
<net version="0.25">
   <location convBoundary="0.00,0.00,784.26,788.04" netOffset="-676132.93,-5408306.38" origBoundary="11.399036,48.802646,11.409664,48.809700" projParameter="+proj=utm +zone=32 +ellps=WGS84 +datum=WGS84 +units=m +no_defs"/>
   <type allow="pedestrian" id="highway.bridleway" numLanes="1" oneway="1" priority="1" speed="2.78" width="2.00"/>
   <type allow="bus" id="highway.bus_guideway" numLanes="1" oneway="1" priority="1" speed="8.33"/>
   <type allow="bicycle" id="highway.cycleway" numLanes="1" oneway="0" priority="1" speed="5.56" width="1.00"/>
   <type allow="pedestrian" id="highway.footway" numLanes="1" oneway="1" priority="1" speed="8.33" width="2.00"/>
   <type allow="army" id="highway.ford" numLanes="1" oneway="0" priority="1" speed="2.78"/>
   <type disallow="tram rail_urban rail rail_electric ship" id="highway.living_street" numLanes="1" oneway="0" priority="3" speed="2.78"/>
   <type allow="private emergency authority army vip passenger hov taxi bus coach delivery truck trailer motorcycle evehicle custom1 custom2" id="highway.motorway" numLanes="2" oneway="1" priority="13" speed="44.44"/>
   <type allow="private emergency authority army vip passenger hov taxi bus coach delivery truck trailer motorcycle evehicle custom1 custom2" id="highway.motorway_link" numLanes="1" oneway="1" priority="12" speed="22.22"/>
   <type allow="bicycle pedestrian" id="highway.path" numLanes="1" oneway="1" priority="1" speed="2.78" width="2.00"/>
   <type allow="pedestrian" id="highway.pedestrian" numLanes="1" oneway="1" priority="1" speed="8.33" width="2.00"/>
   <type disallow="tram rail_urban rail rail_electric ship" id="highway.primary" numLanes="2" oneway="0" priority="9" speed="27.78"/>
   <type disallow="tram rail_urban rail rail_electric ship" id="highway.primary_link" numLanes="1" oneway="0" priority="8" speed="22.22"/>
   <type allow="vip" id="highway.raceway" numLanes="2" oneway="0" priority="14" speed="83.33"/>
   <type disallow="tram rail_urban rail rail_electric ship" id="highway.residential" numLanes="1" oneway="0" priority="4" speed="13.89"/>
   <type disallow="tram rail_urban rail rail_electric ship" id="highway.secondary" numLanes="2" oneway="0" priority="7" speed="27.78"/>
   <type disallow="tram rail_urban rail rail_electric ship" id="highway.secondary_link" numLanes="1" oneway="0" priority="6" speed="22.22"/>
   <type allow="delivery bicycle pedestrian" id="highway.service" numLanes="1" oneway="0" priority="2" speed="5.56"/>
   <type disallow="tram rail_urban rail rail_electric ship" id="highway.services" numLanes="1" oneway="0" priority="1" speed="8.33"/>
   <type allow="pedestrian" id="highway.stairs" numLanes="1" oneway="1" priority="1" speed="1.39" width="2.00"/>
   <type allow="pedestrian" id="highway.step" numLanes="1" oneway="1" priority="1" speed="1.39" width="2.00"/>
   <type allow="pedestrian" id="highway.steps" numLanes="1" oneway="1" priority="1" speed="1.39" width="2.00"/>
   <type disallow="tram rail_urban rail rail_electric ship" id="highway.tertiary" numLanes="1" oneway="0" priority="6" speed="22.22"/>
   <type disallow="tram rail_urban rail rail_electric ship" id="highway.tertiary_link" numLanes="1" oneway="0" priority="5" speed="22.22"/>
   <type disallow="tram rail_urban rail rail_electric ship" id="highway.track" numLanes="1" oneway="0" priority="1" speed="5.56"/>
   <type disallow="tram rail_urban rail rail_electric bicycle pedestrian ship" id="highway.trunk" numLanes="2" oneway="0" priority="11" speed="27.78"/>
   <type disallow="tram rail_urban rail rail_electric bicycle pedestrian ship" id="highway.trunk_link" numLanes="1" oneway="0" priority="10" speed="22.22"/>
   <type disallow="tram rail_urban rail rail_electric ship" id="highway.unclassified" numLanes="1" oneway="0" priority="5" speed="13.89"/>
   <type disallow="tram rail_urban rail rail_electric ship" id="highway.unsurfaced" numLanes="1" oneway="0" priority="1" speed="8.33"/>
   <type allow="rail_urban" id="railway.light_rail" numLanes="1" oneway="1" priority="15" speed="27.78"/>
   <type allow="rail" id="railway.preserved" numLanes="1" oneway="1" priority="15" speed="27.78"/>
   <type allow="rail rail_electric" id="railway.rail" numLanes="1" oneway="1" priority="15" speed="83.33"/>
   <type allow="rail_urban" id="railway.subway" numLanes="1" oneway="1" priority="15" speed="27.78"/>
   <type allow="tram" id="railway.tram" numLanes="1" oneway="1" priority="15" speed="13.89"/>
   <edge function="internal" id=":1259341784_0">
      <lane disallow="tram rail_urban rail rail_electric ship" id=":1259341784_0_0" index="0" length="0.10" shape="250.44,153.23 250.42,153.24" speed="8.33"/>
   </edge>
   <edge function="internal" id=":1259341784_1">
      <lane disallow="tram rail_urban rail rail_electric ship" id=":1259341784_1_0" index="0" length="2.41" shape="250.44,153.23 248.98,152.94 248.29,152.33" speed="8.33"/>
   </edge>
   <edge function="internal" id=":1259341784_4">
      <lane id=":1259341784_4_0" index="0" length="2.41" shape="248.29,152.33 248.36,151.41 249.19,150.18" speed="8.33"/>
   </edge>
   <edge function="internal" id=":1259341784_2">
      <lane disallow="tram rail_urban rail rail_electric ship" id=":1259341784_2_0" index="0" length="0.10" shape="249.22,150.17 249.19,150.18" speed="8.33"/>
   </edge>
   <edge function="internal" id=":1259341784_3">
      <lane disallow="tram rail_urban rail rail_electric ship" id=":1259341784_3_0" index="0" length="2.41" shape="249.22,150.17 250.67,150.48 251.35,151.10" speed="8.33"/>
   </edge>
   <edge function="internal" id=":1259341784_5">
      <lane id=":1259341784_5_0" index="0" length="2.41" shape="251.35,151.10 251.27,152.02 250.42,153.24" speed="8.33"/>
   </edge>
   <edge function="internal" id=":1394719887_0">
      <lane disallow="tram rail_urban rail rail_electric ship" id=":1394719887_0_0" index="0" length="0.10" shape="325.79,698.23 325.81,698.24" speed="20.83"/>
      <lane disallow="tram rail_urban rail rail_electric ship" id=":1394719887_0_1" index="1" length="0.10" shape="327.73,695.56 327.73,695.56" speed="20.83"/>
   </edge>
   <edge function="internal" id=":1394719887_2">
      <lane disallow="tram rail_urban rail rail_electric ship" id=":1394719887_2_0" index="0" length="2.41" shape="327.73,695.56 327.21,694.16 327.36,693.25" speed="27.78"/>
   </edge>
   <edge function="internal" id=":1394719887_6">
      <lane id=":1394719887_6_0" index="0" length="2.41" shape="327.36,693.25 328.18,692.83 329.67,692.89" speed="27.78"/>
   </edge>
   <edge function="internal" id=":1394719887_3">
      <lane disallow="tram rail_urban rail rail_electric ship" id=":1394719887_3_0" index="0" length="0.10" shape="331.60,690.22 331.60,690.22" speed="20.83"/>
      <lane disallow="tram rail_urban rail rail_electric ship" id=":1394719887_3_1" index="1" length="0.10" shape="329.67,692.89 329.67,692.89" speed="20.83"/>
   </edge>
   <edge function="internal" id=":1394719887_5">
      <lane disallow="tram rail_urban rail rail_electric ship" id=":1394719887_5_0" index="0" length="2.41" shape="329.67,692.89 330.19,694.28 330.04,695.19" speed="13.89"/>
   </edge>
   <edge function="internal" id=":1394719887_7">
      <lane id=":1394719887_7_0" index="0" length="2.41" shape="330.04,695.19 329.22,695.62 327.73,695.56" speed="13.89"/>
   </edge>
   <edge function="internal" id=":1394740101_0">
      <lane disallow="tram rail_urban rail rail_electric ship" id=":1394740101_0_0" index="0" length="5.78" shape="619.26,532.72 617.83,531.76 616.67,531.66 615.79,532.41 615.18,534.03" speed="9.73"/>
   </edge>
   <edge function="internal" id=":1394740101_1">
      <lane disallow="tram rail_urban rail rail_electric ship" id=":1394740101_1_0" index="0" length="11.47" shape="619.26,532.72 616.72,530.09 615.12,527.57 614.47,525.16 614.76,522.85" speed="9.73"/>
   </edge>
   <edge function="internal" id=":1394740101_2">
      <lane allow="delivery bicycle pedestrian" id=":1394740101_2_0" index="0" length="4.82" shape="619.26,532.72 618.89,531.29 619.12,530.39 619.98,530.05 621.45,530.26" speed="5.56"/>
   </edge>
   <edge function="internal" id=":1394740101_3">
      <lane allow="delivery bicycle pedestrian" id=":1394740101_3_0" index="0" length="7.62" shape="617.89,523.92 617.80,525.23 618.36,526.72 619.58,528.40 621.45,530.26" speed="9.73"/>
   </edge>
   <edge function="internal" id=":1394740101_4">
      <lane disallow="tram rail_urban rail rail_electric ship" id=":1394740101_4_0" index="0" length="10.47" shape="617.89,523.92 616.94,526.81 616.35,528.92 615.85,531.06 615.18,534.03" speed="13.89"/>
   </edge>
   <edge function="internal" id=":1394740101_5">
      <lane disallow="tram rail_urban rail rail_electric ship" id=":1394740101_5_0" index="0" length="2.41" shape="617.89,523.92 616.70,524.83 615.79,524.95" speed="13.89"/>
   </edge>
   <edge function="internal" id=":1394740101_9">
      <lane id=":1394740101_9_0" index="0" length="2.41" shape="615.79,524.95 615.14,524.29 614.76,522.85" speed="13.89"/>
   </edge>
   <edge function="internal" id=":1394740101_6">
      <lane disallow="tram rail_urban rail rail_electric ship" id=":1394740101_6_0" index="0" length="10.82" shape="611.97,533.29 612.65,530.27 613.18,528.02 613.80,525.79 614.76,522.85" speed="13.89"/>
   </edge>
   <edge function="internal" id=":1394740101_7">
      <lane allow="delivery bicycle pedestrian" id=":1394740101_7_0" index="0" length="5.98" shape="611.97,533.29 613.38,529.53 614.87,528.25" speed="9.73"/>
   </edge>
   <edge function="internal" id=":1394740101_8">
      <lane disallow="tram rail_urban rail rail_electric ship" id=":1394740101_8_0" index="0" length="2.41" shape="611.97,533.29 613.05,532.27 613.95,532.05" speed="13.89"/>
   </edge>
   <edge function="internal" id=":1394740101_10">
      <lane id=":1394740101_10_0" index="0" length="7.45" shape="614.87,528.25 615.43,527.77 618.12,528.01 621.45,530.26" speed="9.73"/>
   </edge>
   <edge function="internal" id=":1394740101_11">
      <lane id=":1394740101_11_0" index="0" length="2.41" shape="613.95,532.05 614.66,532.64 615.18,534.03" speed="13.89"/>
   </edge>
   <edge function="internal" id=":1394740181_0">
      <lane allow="delivery bicycle pedestrian" id=":1394740181_0_0" index="0" length="5.58" shape="734.20,612.91 733.13,612.13 731.93,611.90 730.62,612.22 729.18,613.09" speed="9.73"/>
   </edge>
   <edge function="internal" id=":1394740181_1">
      <lane disallow="tram rail_urban rail rail_electric ship" id=":1394740181_1_0" index="0" length="9.60" shape="734.20,612.91 727.44,606.10" speed="13.89"/>
   </edge>
   <edge function="internal" id=":1394740181_2">
      <lane disallow="tram rail_urban rail rail_electric ship" id=":1394740181_2_0" index="0" length="2.41" shape="734.20,612.91 733.94,611.45 734.25,610.58" speed="13.89"/>
   </edge>
   <edge function="internal" id=":1394740181_9">
      <lane id=":1394740181_9_0" index="0" length="2.41" shape="734.25,610.58 735.13,610.30 736.58,610.62" speed="13.89"/>
   </edge>
   <edge function="internal" id=":1394740181_3">
      <lane disallow="tram rail_urban rail rail_electric ship" id=":1394740181_3_0" index="0" length="9.70" shape="729.74,603.74 736.58,610.62" speed="13.89"/>
   </edge>
   <edge function="internal" id=":1394740181_4">
      <lane allow="delivery bicycle pedestrian" id=":1394740181_4_0" index="0" length="5.53" shape="729.74,603.74 731.62,606.20 732.16,608.58" speed="9.73"/>
   </edge>
   <edge function="internal" id=":1394740181_5">
      <lane disallow="tram rail_urban rail rail_electric ship" id=":1394740181_5_0" index="0" length="2.41" shape="729.74,603.74 730.05,605.20 729.77,606.07" speed="13.89"/>
   </edge>
   <edge function="internal" id=":1394740181_10">
      <lane id=":1394740181_10_0" index="0" length="5.53" shape="732.16,608.58 731.34,610.88 729.18,613.09" speed="9.73"/>
   </edge>
   <edge function="internal" id=":1394740181_11">
      <lane id=":1394740181_11_0" index="0" length="2.41" shape="729.77,606.07 728.90,606.37 727.44,606.10" speed="13.89"/>
   </edge>
   <edge function="internal" id=":1394740181_6">
      <lane disallow="tram rail_urban rail rail_electric ship" id=":1394740181_6_0" index="0" length="5.18" shape="727.17,610.47 728.18,609.44 728.56,608.36 728.31,607.25 727.44,606.10" speed="9.73"/>
   </edge>
   <edge function="internal" id=":1394740181_7">
      <lane disallow="tram rail_urban rail rail_electric ship" id=":1394740181_7_0" index="0" length="10.48" shape="727.17,610.47 729.76,608.95 732.19,608.47 734.46,609.02 736.58,610.62" speed="9.73"/>
   </edge>
   <edge function="internal" id=":1394740181_8">
      <lane allow="delivery bicycle pedestrian" id=":1394740181_8_0" index="0" length="4.82" shape="727.17,610.47 728.66,610.37 729.48,610.78 729.66,611.68 729.18,613.09" speed="5.56"/>
   </edge>
   <edge function="internal" id=":1394740190_0">
      <lane allow="delivery bicycle pedestrian" id=":1394740190_0_0" index="0" length="9.62" shape="723.18,617.70 715.55,623.55" speed="5.56"/>
   </edge>
   <edge function="internal" id=":1394740190_1">
      <lane allow="delivery bicycle pedestrian" id=":1394740190_1_0" index="0" length="10.47" shape="723.18,617.70 720.94,618.89 718.61,619.10 716.19,618.32 713.69,616.56" speed="5.56"/>
   </edge>
   <edge function="internal" id=":1394740190_2">
      <lane allow="delivery bicycle pedestrian" id=":1394740190_2_0" index="0" length="4.82" shape="723.18,617.70 721.69,617.79 720.87,617.39 720.69,616.49 721.17,615.08" speed="5.56"/>
   </edge>
   <edge function="internal" id=":1394740190_3">
      <lane allow="delivery bicycle pedestrian" id=":1394740190_3_0" index="0" length="5.87" shape="715.89,614.09 717.36,615.17 718.73,615.69 720.00,615.66 721.17,615.08" speed="5.56"/>
   </edge>
   <edge function="internal" id=":1394740190_4">
      <lane allow="delivery bicycle pedestrian" id=":1394740190_4_0" index="0" length="11.34" shape="715.89,614.09 717.95,616.53 718.58,618.92 717.78,621.26 715.55,623.55" speed="5.56"/>
   </edge>
   <edge function="internal" id=":1394740190_5">
      <lane allow="delivery bicycle pedestrian" id=":1394740190_5_0" index="0" length="4.82" shape="715.89,614.09 716.26,615.53 716.02,616.42 715.17,616.76 713.69,616.56" speed="5.56"/>
   </edge>
   <edge function="internal" id=":1394740190_6">
      <lane allow="delivery bicycle pedestrian" id=":1394740190_6_0" index="0" length="5.24" shape="713.54,620.93 714.57,619.87 714.94,618.79 714.65,617.69 713.69,616.56" speed="5.56"/>
   </edge>
   <edge function="internal" id=":1394740190_7">
      <lane allow="delivery bicycle pedestrian" id=":1394740190_7_0" index="0" length="9.62" shape="713.54,620.93 721.17,615.08" speed="5.56"/>
   </edge>
   <edge function="internal" id=":1394740190_8">
      <lane allow="delivery bicycle pedestrian" id=":1394740190_8_0" index="0" length="4.82" shape="713.54,620.93 715.02,620.83 715.85,621.24 716.03,622.14 715.55,623.55" speed="5.56"/>
   </edge>
   <edge function="internal" id=":1394740219_0">
      <lane allow="delivery bicycle pedestrian" id=":1394740219_0_0" index="0" length="4.82" shape="689.57,643.48 688.08,643.58 687.25,643.18 687.08,642.27 687.56,640.86" speed="5.56"/>
   </edge>
   <edge function="internal" id=":1394740289_0">
      <lane disallow="tram rail_urban rail rail_electric ship" id=":1394740289_0_0" index="0" length="7.21" shape="777.85,782.02 777.24,784.31 776.31,785.32 775.06,785.05 773.49,783.52" speed="2.78"/>
   </edge>
   <edge function="internal" id=":1394740289_1">
      <lane disallow="tram rail_urban rail rail_electric ship" id=":1394740289_1_0" index="0" length="2.18" shape="777.85,782.02 777.33,783.56 776.91,783.93" speed="2.78"/>
   </edge>
   <edge function="internal" id=":1394740289_4">
      <lane id=":1394740289_4_0" index="0" length="3.08" shape="776.91,783.93 776.57,784.23 775.58,784.02 774.37,782.94" speed="2.78"/>
   </edge>
   <edge function="internal" id=":1394740289_2">
      <lane disallow="tram rail_urban rail rail_electric ship" id=":1394740289_2_0" index="0" length="2.46" shape="776.75,782.32 774.37,782.94" speed="2.78"/>
   </edge>
   <edge function="internal" id=":1394740289_3">
      <lane disallow="tram rail_urban rail rail_electric ship" id=":1394740289_3_0" index="0" length="2.54" shape="776.75,782.32 776.38,783.84 775.72,784.55" speed="2.78"/>
   </edge>
   <edge function="internal" id=":1394740289_5">
      <lane id=":1394740289_5_0" index="0" length="2.54" shape="775.72,784.55 774.75,784.44 773.49,783.52" speed="2.78"/>
   </edge>
   <edge function="internal" id=":1394753128_0">
      <lane disallow="tram rail_urban rail rail_electric ship" id=":1394753128_0_0" index="0" length="9.48" shape="440.57,275.95 437.38,267.02" speed="22.22"/>
   </edge>
   <edge function="internal" id=":1394753128_1">
      <lane disallow="tram rail_urban rail rail_electric ship" id=":1394753128_1_0" index="0" length="5.33" shape="440.57,275.95 439.98,272.90 440.51,270.74" speed="18.06"/>
   </edge>
   <edge function="internal" id=":1394753128_2">
      <lane disallow="tram rail_urban rail rail_electric ship" id=":1394753128_2_0" index="0" length="2.41" shape="440.57,275.95 440.94,274.51 441.59,273.85" speed="22.22"/>
   </edge>
   <edge function="internal" id=":1394753128_9">
      <lane id=":1394753128_9_0" index="0" length="5.76" shape="440.51,270.74 440.56,270.53 442.32,268.84 445.26,267.83" speed="18.06"/>
   </edge>
   <edge function="internal" id=":1394753128_10">
      <lane id=":1394753128_10_0" index="0" length="2.41" shape="441.59,273.85 442.50,273.97 443.69,274.87" speed="22.22"/>
   </edge>
   <edge function="internal" id=":1394753128_3">
      <lane disallow="tram rail_urban rail rail_electric ship" id=":1394753128_3_0" index="0" length="5.18" shape="445.88,271.07 444.51,271.54 443.68,272.33 443.41,273.44 443.69,274.87" speed="18.06"/>
   </edge>
   <edge function="internal" id=":1394753128_4">
      <lane disallow="tram rail_urban rail rail_electric ship" id=":1394753128_4_0" index="0" length="10.37" shape="445.88,271.07 442.89,271.29 440.48,270.68 438.64,269.26 437.38,267.02" speed="18.06"/>
   </edge>
   <edge function="internal" id=":1394753128_5">
      <lane disallow="tram rail_urban rail rail_electric ship" id=":1394753128_5_0" index="0" length="4.82" shape="445.88,271.07 444.51,270.49 443.95,269.76 444.20,268.87 445.26,267.83" speed="13.89"/>
   </edge>
   <edge function="internal" id=":1394753128_6">
      <lane disallow="tram rail_urban rail rail_electric ship" id=":1394753128_6_0" index="0" length="5.68" shape="440.47,265.88 441.14,267.00 442.16,267.70 443.53,267.98 445.26,267.83" speed="18.06"/>
   </edge>
   <edge function="internal" id=":1394753128_7">
      <lane disallow="tram rail_urban rail rail_electric ship" id=":1394753128_7_0" index="0" length="9.55" shape="440.47,265.88 443.69,274.87" speed="22.22"/>
   </edge>
   <edge function="internal" id=":1394753128_8">
      <lane disallow="tram rail_urban rail rail_electric ship" id=":1394753128_8_0" index="0" length="2.41" shape="440.47,265.88 440.13,267.32 439.50,268.00" speed="22.22"/>
   </edge>
   <edge function="internal" id=":1394753128_11">
      <lane id=":1394753128_11_0" index="0" length="2.41" shape="439.50,268.00 438.58,267.90 437.38,267.02" speed="22.22"/>
   </edge>
   <edge function="internal" id=":1394753282_0">
      <lane allow="delivery bicycle pedestrian" id=":1394753282_0_0" index="0" length="4.89" shape="603.39,644.87 601.83,643.81 600.70,643.44 599.98,643.74 599.68,644.74" speed="9.73"/>
   </edge>
   <edge function="internal" id=":1394753282_1">
      <lane disallow="tram rail_urban rail rail_electric ship" id=":1394753282_1_0" index="0" length="8.85" shape="603.39,644.87 601.70,643.27 600.45,641.48 599.64,639.50 599.27,637.33" speed="13.89"/>
   </edge>
   <edge function="internal" id=":1394753282_2">
      <lane disallow="tram rail_urban rail rail_electric ship" id=":1394753282_2_0" index="0" length="2.28" shape="603.39,644.87 602.87,643.40 603.00,642.69" speed="13.89"/>
   </edge>
   <edge function="internal" id=":1394753282_9">
      <lane id=":1394753282_9_0" index="0" length="2.78" shape="603.00,642.69 603.05,642.45 603.91,642.01 605.47,642.11" speed="13.89"/>
   </edge>
   <edge function="internal" id=":1394753282_3">
      <lane disallow="tram rail_urban rail rail_electric ship" id=":1394753282_3_0" index="0" length="6.33" shape="602.56,637.10 602.87,639.26 603.46,640.82 604.33,641.77 605.47,642.11" speed="13.89"/>
   </edge>
   <edge function="internal" id=":1394753282_4">
      <lane allow="delivery bicycle pedestrian" id=":1394753282_4_0" index="0" length="2.95" shape="602.56,637.10 601.52,639.85" speed="9.73"/>
   </edge>
   <edge function="internal" id=":1394753282_5">
      <lane disallow="tram rail_urban rail rail_electric ship" id=":1394753282_5_0" index="0" length="2.27" shape="602.56,637.10 601.82,638.39 601.14,638.79" speed="13.89"/>
   </edge>
   <edge function="internal" id=":1394753282_10">
      <lane id=":1394753282_10_0" index="0" length="5.22" shape="601.52,639.85 599.68,644.74" speed="9.73"/>
   </edge>
   <edge function="internal" id=":1394753282_11">
      <lane id=":1394753282_11_0" index="0" length="2.54" shape="601.14,638.79 601.03,638.86 600.18,638.50 599.27,637.33" speed="13.89"/>
   </edge>
   <edge function="internal" id=":1394753282_6">
      <lane disallow="tram rail_urban rail rail_electric ship" id=":1394753282_6_0" index="0" length="4.40" shape="597.26,640.90 598.21,640.32 598.86,639.54 599.21,638.54 599.27,637.33" speed="9.73"/>
   </edge>
   <edge function="internal" id=":1394753282_7">
      <lane disallow="tram rail_urban rail rail_electric ship" id=":1394753282_7_0" index="0" length="8.30" shape="597.26,640.90 605.47,642.11" speed="9.73"/>
   </edge>
   <edge function="internal" id=":1394753282_8">
      <lane allow="delivery bicycle pedestrian" id=":1394753282_8_0" index="0" length="6.62" shape="597.26,640.90 599.30,640.95 600.39,641.61 600.51,642.87 599.68,644.74" speed="5.56"/>
   </edge>
   <edge function="internal" id=":1394753294_0">
      <lane allow="delivery bicycle pedestrian" id=":1394753294_0_0" index="0" length="4.82" shape="596.03,697.81 595.12,698.98 594.27,699.34 593.47,698.87 592.74,697.58" speed="5.56"/>
   </edge>
   <edge function="internal" id=":1395032509_0">
      <lane disallow="tram rail_urban rail rail_electric ship" id=":1395032509_0_0" index="0" length="2.90" shape="705.39,175.98 704.92,173.12" speed="13.89"/>
   </edge>
   <edge function="internal" id=":1395032509_1">
      <lane disallow="tram rail_urban rail rail_electric ship" id=":1395032509_1_0" index="0" length="4.54" shape="705.39,175.98 704.90,174.09 705.22,172.92 706.35,172.47 706.50,172.50" speed="13.89"/>
   </edge>
   <edge function="internal" id=":1395032509_4">
      <lane id=":1395032509_4_0" index="0" length="1.80" shape="706.50,172.50 708.28,172.75" speed="13.89"/>
   </edge>
   <edge function="internal" id=":1395032509_2">
      <lane disallow="tram rail_urban rail rail_electric ship" id=":1395032509_2_0" index="0" length="0.85" shape="708.01,171.95 708.28,172.75" speed="13.89"/>
   </edge>
   <edge function="internal" id=":1395032509_3">
      <lane disallow="tram rail_urban rail rail_electric ship" id=":1395032509_3_0" index="0" length="2.77" shape="708.01,171.95 707.68,173.40 707.05,174.08 706.69,174.04" speed="13.89"/>
   </edge>
   <edge function="internal" id=":1395032509_5">
      <lane id=":1395032509_5_0" index="0" length="2.05" shape="706.69,174.04 706.13,173.98 704.92,173.12" speed="13.89"/>
   </edge>
   <edge function="internal" id=":1395032710_0">
      <lane disallow="tram rail_urban rail rail_electric ship" id=":1395032710_0_0" index="0" length="4.82" shape="78.05,321.23 76.66,320.68 76.08,319.97 76.31,319.07 77.34,318.00" speed="13.89"/>
   </edge>
   <edge function="internal" id=":1395032943_0">
      <lane disallow="tram rail_urban rail rail_electric ship" id=":1395032943_0_0" index="0" length="3.49" shape="166.79,574.16 165.16,571.07" speed="13.89"/>
   </edge>
   <edge function="internal" id=":1395032943_1">
      <lane disallow="tram rail_urban rail rail_electric ship" id=":1395032943_1_0" index="0" length="9.49" shape="166.79,574.16 158.95,568.81" speed="13.89"/>
   </edge>
   <edge function="internal" id=":1395032943_2">
      <lane disallow="tram rail_urban rail rail_electric ship" id=":1395032943_2_0" index="0" length="2.41" shape="166.79,574.16 166.23,572.78 166.35,571.87" speed="13.89"/>
   </edge>
   <edge function="internal" id=":1395032943_9">
      <lane id=":1395032943_9_0" index="0" length="2.41" shape="166.35,571.87 167.16,571.42 168.64,571.43" speed="13.89"/>
   </edge>
   <edge function="internal" id=":1395032943_3">
      <lane disallow="tram rail_urban rail rail_electric ship" id=":1395032943_3_0" index="0" length="9.48" shape="160.82,566.09 168.64,571.43" speed="13.89"/>
   </edge>
   <edge function="internal" id=":1395032943_4">
      <lane disallow="tram rail_urban rail rail_electric ship" id=":1395032943_4_0" index="0" length="6.96" shape="160.82,566.09 163.07,567.76 164.55,569.15 165.25,570.25 165.16,571.07" speed="13.89"/>
   </edge>
   <edge function="internal" id=":1395032943_5">
      <lane disallow="tram rail_urban rail rail_electric ship" id=":1395032943_5_0" index="0" length="2.41" shape="160.82,566.09 161.37,567.47 161.25,568.38" speed="13.89"/>
   </edge>
   <edge function="internal" id=":1395032943_10">
      <lane id=":1395032943_10_0" index="0" length="2.41" shape="161.25,568.38 160.44,568.83 158.95,568.81" speed="13.89"/>
   </edge>
   <edge function="internal" id=":1395032943_6">
      <lane disallow="tram rail_urban rail rail_electric ship" id=":1395032943_6_0" index="0" length="4.25" shape="160.30,572.32 160.67,571.44 160.57,570.56 160.00,569.68 158.95,568.81" speed="13.89"/>
   </edge>
   <edge function="internal" id=":1395032943_7">
      <lane disallow="tram rail_urban rail rail_electric ship" id=":1395032943_7_0" index="0" length="9.54" shape="160.30,572.32 161.97,570.59 163.92,569.86 166.15,570.14 168.64,571.43" speed="13.89"/>
   </edge>
   <edge function="internal" id=":1395032943_8">
      <lane disallow="tram rail_urban rail rail_electric ship" id=":1395032943_8_0" index="0" length="7.34" shape="160.30,572.32 161.05,570.18 162.11,569.26 163.48,569.56 165.16,571.07" speed="13.89"/>
   </edge>
   <edge function="internal" id=":1395032958_0">
      <lane disallow="tram rail_urban rail rail_electric ship" id=":1395032958_0_0" index="0" length="9.51" shape="160.47,583.31 152.66,577.89" speed="13.89"/>
      <lane disallow="tram rail_urban rail rail_electric ship" id=":1395032958_0_1" index="1" length="9.51" shape="162.35,580.59 154.54,575.18" speed="13.89"/>
   </edge>
   <edge function="internal" id=":1395032958_2">
      <lane disallow="tram rail_urban rail rail_electric ship" id=":1395032958_2_0" index="0" length="5.48" shape="162.35,580.59 160.25,578.72 159.18,576.75 159.18,576.33" speed="13.89"/>
   </edge>
   <edge function="internal" id=":1395032958_3">
      <lane disallow="tram rail_urban rail rail_electric ship" id=":1395032958_3_0" index="0" length="2.41" shape="162.35,580.59 161.80,579.21 161.93,578.30" speed="13.89"/>
   </edge>
   <edge function="internal" id=":1395032958_11">
      <lane id=":1395032958_11_0" index="0" length="4.07" shape="159.18,576.33 159.16,574.67 160.18,572.49" speed="13.89"/>
   </edge>
   <edge function="internal" id=":1395032958_12">
      <lane id=":1395032958_12_0" index="0" length="2.41" shape="161.93,578.30 162.74,577.85 164.23,577.88" speed="13.89"/>
   </edge>
   <edge function="internal" id=":1395032958_4">
      <lane disallow="tram rail_urban rail rail_electric ship" id=":1395032958_4_0" index="0" length="4.63" shape="165.05,571.24 164.56,572.30 164.57,573.30 165.09,574.26 166.11,575.17" speed="13.89"/>
   </edge>
   <edge function="internal" id=":1395032958_5">
      <lane disallow="tram rail_urban rail rail_electric ship" id=":1395032958_5_0" index="0" length="12.69" shape="165.05,571.24 162.43,574.34 159.80,576.02 157.17,576.31 154.54,575.18" speed="13.89"/>
   </edge>
   <edge function="internal" id=":1395032958_6">
      <lane disallow="tram rail_urban rail rail_electric ship" id=":1395032958_6_0" index="0" length="7.34" shape="165.05,571.24 164.30,573.38 163.24,574.30 161.87,574.00 160.18,572.49" speed="13.89"/>
   </edge>
   <edge function="internal" id=":1395032958_7">
      <lane disallow="tram rail_urban rail rail_electric ship" id=":1395032958_7_0" index="0" length="3.32" shape="158.29,569.76 160.18,572.49" speed="13.89"/>
   </edge>
   <edge function="internal" id=":1395032958_8">
      <lane disallow="tram rail_urban rail rail_electric ship" id=":1395032958_8_0" index="0" length="9.50" shape="158.29,569.76 166.11,575.17" speed="13.89"/>
      <lane disallow="tram rail_urban rail rail_electric ship" id=":1395032958_8_1" index="1" length="9.50" shape="156.42,572.47 164.23,577.88" speed="13.89"/>