<?xml version="1.0" encoding="utf-8"?><!-- generated on 10/11/17 17:54:30 by SUMO polyconvert Version 0.25.0
<?xml version="1.0" encoding="UTF-8"?>

<configuration xmlns:xsi="http://www.w3.org/2001/XMLSchema-instance" xsi:noNamespaceSchemaLocation="http://sumo.dlr.de/xsd/polyconvertConfiguration.xsd">

    <input>
        <net-file value="IN_FeStr_urban_800.net.xml"/>
        <osm-files value="IN_FeStr_urban_800.osm"/>
        <type-file value="osmPolyconvert.typ.xml"/>
    </input>

    <output>
        <output-file value="IN_FeStr_urban_800.poly.xml"/>
    </output>

    <projection>
        <proj.utm value="true"/>
    </projection>

    <processing>
        <poi-layer-offset value="5"/>
    </processing>

</configuration>
-->
<additional>
   <location convBoundary="-0.00,-7.70,821.13,805.79" netOffset="-678921.60,-5402731.17" origBoundary="11.434537,48.751703,11.445435,48.758900" projParameter="+proj=utm +zone=32 +ellps=WGS84 +datum=WGS84 +units=m +no_defs"/>
   <poly color="red" fill="1" id="103313504" layer="-1.00" shape="771.26,82.23 777.41,92.80 792.95,83.81 786.80,73.25 771.26,82.23" type="building"/>
   <poly color="red" fill="1" id="103313506" layer="-1.00" shape="799.82,46.55 805.69,56.98 815.37,51.56 809.50,41.13 799.82,46.55" type="building"/>
   <poly color="red" fill="1" id="103313511" layer="-1.00" shape="794.62,33.40 797.75,38.99 805.21,34.81 802.06,29.23 794.62,33.40" type="building"/>
   <poly color="red" fill="1" id="103313517" layer="-1.00" shape="703.47,47.90 716.86,39.33 711.42,30.89 704.74,35.16 701.60,30.28 694.89,34.58 703.47,47.90" type="building"/>
   <poly color="red" fill="1" id="103313518" layer="-1.00" shape="758.61,14.29 754.77,7.47 749.32,10.53 753.15,17.34 758.61,14.29" type="building"/>
   <poly color="red" fill="1" id="103313521" layer="-1.00" shape="675.58,4.02 680.22,11.21 691.72,3.85 675.58,4.02" type="building"/>
   <poly color="red" fill="1" id="103313522" layer="-1.00" shape="808.08,61.66 813.61,71.66 817.60,56.42 808.08,61.66" type="building"/>
   <poly color="red" fill="1" id="103313523" layer="-1.00" shape="740.04,32.14 744.38,39.85 763.00,29.41 758.66,21.71 740.04,32.14" type="building"/>
   <poly color="red" fill="1" id="103313524" layer="-1.00" shape="723.72,10.11 727.82,17.38 748.17,5.99 723.72,10.11" type="building"/>
   <poly color="red" fill="1" id="103313528" layer="-1.00" shape="757.25,51.22 762.94,61.32 780.89,51.27 775.20,41.17 757.25,51.22" type="building"/>
   <poly color="red" fill="1" id="103313530" layer="-1.00" shape="783.78,18.77 787.80,25.90 796.25,21.18 792.22,14.03 783.78,18.77" type="building"/>
   <poly color="red" fill="1" id="103313532" layer="-1.00" shape="692.65,28.58 703.80,21.44 698.48,13.17 687.33,20.31 692.65,28.58" type="building"/>
   <poly color="red" fill="1" id="103313536" layer="-1.00" shape="757.61,105.91 754.56,100.67 759.26,97.95 754.87,90.41 761.97,86.30 769.41,99.09 757.61,105.91" type="building"/>
   <poly color="red" fill="1" id="103313537" layer="-1.00" shape="787.38,7.28" type="building"/>
   <poly color="red" fill="1" id="103313541" layer="-1.00" shape="717.20,69.77 721.56,76.53 728.99,71.77 724.63,65.01 717.20,69.77" type="building"/>
   <poly color="red" fill="1" id="103313545" layer="-1.00" shape="706.93,52.74 712.23,60.99 721.59,55.00 716.27,46.75 706.93,52.74" type="building"/>
   <poly color="red" fill="1" id="103313554" layer="-1.00" shape="751.57,106.45 747.21,98.94 735.64,106.92 740.01,114.44 751.57,106.45" type="building"/>
   <poly color="red" fill="1" id="103429511" layer="-1.00" shape="551.77,24.31 563.77,26.66 563.23,29.39 569.54,30.62 568.48,35.99 550.18,32.40 551.77,24.31" type="building"/>
   <poly color="red" fill="1" id="103429514" layer="-1.00" shape="518.59,72.08 511.69,69.95 513.49,64.17 511.91,63.68 514.46,55.47 522.93,58.07 518.59,72.08" type="building"/>
   <poly color="red" fill="1" id="103429516" layer="-1.00" shape="556.00,46.36 549.18,40.23 544.64,45.24 551.46,51.38 556.00,46.36" type="building"/>
   <poly color="red" fill="1" id="103429517" layer="-1.00" shape="561.13,10.94 558.93,20.38 577.66,24.75 579.87,15.31 561.13,10.94" type="building"/>
   <poly color="red" fill="1" id="103429520" layer="-1.00" shape="533.78,74.38 538.22,60.05 531.80,58.08 529.95,64.03 526.45,62.95 523.86,71.32 533.78,74.38" type="building"/>
   <poly color="red" fill="1" id="103429523" layer="-1.00" shape="477.00,57.56 486.99,60.58 491.97,44.26 481.97,41.23 477.00,57.56" type="building"/>
   <poly color="red" fill="1" id="103429528" layer="-1.00" shape="482.64,32.62 494.69,36.26 496.92,28.97 506.35,31.83 508.47,24.88 497.29,21.48 496.29,24.78 485.98,21.65 482.64,32.62" type="building"/>
   <poly color="red" fill="1" id="103429535" layer="-1.00" shape="521.65,34.82 519.63,44.84 537.10,47.90 538.49,38.08 521.65,34.82" type="building"/>
   <poly color="red" fill="1" id="103429545" layer="-1.00" shape="576.56,0.68 575.05,7.15 591.10,10.88 592.62,4.42 576.56,0.68" type="building"/>
   <poly color="red" fill="1" id="103429548" layer="-1.00" shape="518.95,-1.41 535.33,3.55 518.95,-1.41" type="building"/>
   <poly color="red" fill="1" id="103429549" layer="-1.00" shape="493.49,0.40 489.70,12.84 515.20,20.56 514.27,23.64 523.75,26.51 526.83,16.41 509.93,11.28 511.44,6.36 502.00,3.50 502.14,3.02 493.49,0.40" type="building"/>
   <poly color="237,199,255" fill="1" id="103434076" layer="-1.00" shape="415.39,258.07 431.46,260.06 434.70,293.66 432.35,298.41 424.11,303.00 410.66,301.23 415.39,258.07" type="shop"/>
   <poly color="red" fill="1" id="103434077" layer="-1.00" shape="473.63,139.80 494.25,179.63 504.52,174.34 483.91,134.51 473.63,139.80" type="building"/>
   <poly color="red" fill="1" id="103434078" layer="-1.00" shape="508.02,195.26 529.90,230.66 540.35,224.25 518.47,188.84 508.02,195.26" type="building"/>
   <poly color="red" fill="1" id="103434079" layer="-1.00" shape="463.91,277.04 464.09,236.19 453.40,236.14 453.23,276.99 463.91,277.04" type="building"/>
   <poly color="red" fill="1" id="103434080" layer="-1.00" shape="431.20,246.83 440.57,212.64 428.58,209.36 419.21,243.55 431.20,246.83" type="building"/>
   <poly color="red" fill="1" id="103434081" layer="-1.00" shape="500.73,255.11 492.18,208.13 481.80,210.02 490.35,257.00 500.73,255.11" type="building"/>
   <poly color="red" fill="1" id="103504908" layer="-1.00" shape="669.44,475.15 679.93,469.44 660.33,433.70 649.84,439.42 669.44,475.15" type="building"/>
   <poly color="red" fill="1" id="103504909" layer="-1.00" shape="530.73,591.92 513.43,563.16 503.56,569.07 520.86,597.84 530.73,591.92" type="building"/>
   <poly color="red" fill="1" id="103504910" layer="-1.00" shape="578.87,310.94 588.22,305.10 563.55,265.60 554.20,271.44 578.87,310.94" type="building"/>
   <poly color="red" fill="1" id="103504911" layer="-1.00" shape="643.77,554.45 626.05,520.99 617.10,525.71 634.82,559.16 643.77,554.45" type="building"/>
   <poly color="red" fill="1" id="103504913" layer="-1.00" shape="506.75,322.94 517.37,322.64 516.19,280.98 505.57,281.28 506.75,322.94" type="building"/>
   <poly color="red" fill="1" id="103504914" layer="-1.00" shape="529.82,298.45 541.03,317.73 548.49,313.39 537.29,294.11 529.82,298.45" type="building"/>
   <poly color="red" fill="1" id="103504915" layer="-1.00" shape="629.48,446.91 639.61,441.84 621.28,405.52 611.16,410.59 629.48,446.91" type="building"/>
   <poly color="red" fill="1" id="103504916" layer="-1.00" shape="610.79,365.64 620.15,360.01 592.48,313.91 583.12,319.53 610.79,365.64" type="building"/>
   <poly color="red" fill="1" id="103504917" layer="-1.00" shape="485.96,426.15 455.61,372.52 444.15,378.98 474.50,432.61 485.96,426.15" type="building"/>
   <poly color="red" fill="1" id="103504918" layer="-1.00" shape="611.33,576.24 593.32,529.63 583.85,533.26 601.86,579.87 611.33,576.24" type="building"/>
   <poly color="red" fill="1" id="103504920" layer="-1.00" shape="524.17,496.20 573.46,488.37 571.61,476.84 522.32,484.68 524.17,496.20" type="building"/>
   <poly color="red" fill="1" id="103504921" layer="-1.00" shape="638.97,520.06 672.83,502.97 668.28,494.00 634.41,511.09 638.97,520.06" type="building"/>
   <poly color="red" fill="1" id="103504923" layer="-1.00" shape="622.14,499.34 631.94,495.61 618.60,460.70 608.80,464.43 622.14,499.34" type="building"/>
   <poly color="red" fill="1" id="103504924" layer="-1.00" shape="603.45,398.05 614.39,391.70 599.53,366.23 588.59,372.58 603.45,398.05" type="building"/>
   <poly color="red" fill="1" id="103504925" layer="-1.00" shape="501.05,413.33 554.18,383.69 547.96,372.61 494.83,402.26 501.05,413.33" type="building"/>
   <poly color="red" fill="1" id="103504926" layer="-1.00" shape="487.19,423.48 491.65,420.82 462.87,372.47 458.41,375.13 487.19,423.48" type="building"/>
   <poly color="red" fill="1" id="103504927" layer="-1.00" shape="574.42,586.65 556.44,539.58 545.09,543.87 563.09,590.97 574.42,586.65" type="building"/>
   <poly color="red" fill="1" id="103504928" layer="-1.00" shape="529.72,266.86 539.44,283.52 549.78,277.51 540.07,260.86 529.72,266.86" type="building"/>
   <poly color="red" fill="1" id="103504929" layer="-1.00" shape="614.28,304.44 652.18,365.81 660.92,360.51 623.03,299.15 614.28,304.44" type="building"/>
   <poly color="red" fill="1" id="103504930" layer="-1.00" shape="712.49,525.55 693.81,494.49 685.74,499.31 704.42,530.37 712.49,525.55" type="building"/>
   <poly color="red" fill="1" id="103504931" layer="-1.00" shape="471.39,311.60 499.82,310.75 499.44,301.77 471.00,302.81 471.39,311.60" type="building"/>
   <poly color="red" fill="1" id="103504932" layer="-1.00" shape="560.66,377.63 572.24,371.22 543.11,318.88 531.53,325.29 560.66,377.63" type="building"/>
   <poly color="red" fill="1" id="103504933" layer="-1.00" shape="461.82,352.69 472.26,351.93 470.97,310.69 459.88,310.84 461.82,352.69" type="building"/>
   <poly color="red" fill="1" id="103505647" layer="-1.00" shape="460.51,439.98 455.37,430.93 400.81,461.72 405.95,470.77 460.51,439.98" type="building"/>
   <poly color="red" fill="1" id="103505648" layer="-1.00" shape="383.66,733.21 432.13,706.87 426.54,696.64 378.07,722.98 383.66,733.21" type="building"/>
   <poly color="red" fill="1" id="103505649" layer="-1.00" shape="574.14,613.25 579.71,622.67 644.02,584.80 638.44,575.38 574.14,613.25" type="building"/>
   <poly color="red" fill="1" id="103505650" layer="-1.00" shape="427.73,630.32 417.56,598.45 407.15,601.76 417.32,633.62 427.73,630.32" type="building"/>
   <poly color="red" fill="1" id="103505651" layer="-1.00" shape="421.01,528.80 485.58,517.90 486.06,520.67 522.29,514.56 520.43,503.62 485.12,509.57 484.76,507.42 419.25,518.48 421.01,528.80" type="building"/>
   <poly color="red" fill="1" id="103505652" layer="-1.00" shape="444.20,698.09 471.87,683.10 466.93,674.05 439.27,689.04 444.20,698.09" type="building"/>
   <poly color="red" fill="1" id="103505653" layer="-1.00" shape="346.67,443.01 356.07,440.70 346.37,401.57 336.98,403.88 346.67,443.01" type="building"/>
   <poly color="red" fill="1" id="103505654" layer="-1.00" shape="533.53,647.09 512.52,610.62 503.42,615.84 524.42,652.30 533.53,647.09" type="building"/>
   <poly color="red" fill="1" id="103505656" layer="-1.00" shape="332.40,626.01 321.39,607.73 317.10,610.31 328.11,628.60 332.40,626.01" type="building"/>
   <poly color="red" fill="1" id="103505657" layer="-1.00" shape="372.94,409.04 383.80,409.39 385.23,364.74 374.37,364.39 372.94,409.04" type="building"/>
   <poly color="red" fill="1" id="103505659" layer="-1.00" shape="373.98,716.48 362.27,696.62 357.04,699.69 368.75,719.53 373.98,716.48" type="building"/>
   <poly color="red" fill="1" id="103505660" layer="-1.00" shape="362.94,674.89 357.68,666.23 327.91,684.19 333.17,692.86 362.94,674.89" type="building"/>
   <poly color="red" fill="1" id="103505661" layer="-1.00" shape="334.23,583.75 352.51,613.48 362.42,607.39 344.14,577.66 334.23,583.75" type="building"/>
   <poly color="red" fill="1" id="103505662" layer="-1.00" shape="493.60,670.73 476.16,641.31 466.37,647.07 483.80,676.49 493.60,670.73" type="building"/>
   <poly color="red" fill="1" id="103505663" layer="-1.00" shape="383.13,362.87 390.67,363.11 390.35,373.03 405.18,373.51 405.74,356.07 383.37,355.35 383.13,362.87" type="building"/>
   <poly color="red" fill="1" id="103505664" layer="-1.00" shape="493.99,615.48 474.64,581.48 465.72,586.54 485.08,620.52 493.99,615.48" type="building"/>
   <poly color="red" fill="1" id="103505665" layer="-1.00" shape="428.84,376.25 429.17,335.50 419.95,335.43 419.61,376.16 428.84,376.25" type="building"/>
   <poly color="red" fill="1" id="103505666" layer="-1.00" shape="651.95,575.60 681.66,558.10 682.78,559.98 700.30,549.67 695.22,541.09 679.57,550.30 677.96,547.57 646.37,566.17 651.95,575.60" type="building"/>
   <poly color="red" fill="1" id="103505667" layer="-1.00" shape="407.62,487.06 395.42,493.97 391.96,487.85 390.50,488.68 387.88,484.07 389.34,483.25 382.30,470.85 380.74,471.74 378.37,467.57 379.94,466.68 371.76,452.30 370.02,453.28 367.44,448.74 369.19,447.76 364.92,440.23 377.10,433.33 407.62,487.06" type="building"/>
   <poly color="red" fill="1" id="103505668" layer="-1.00" shape="322.19,600.48 316.61,590.94 283.39,610.25 288.97,619.79 295.48,616.06 322.19,600.48" type="building"/>
   <poly color="red" fill="1" id="103505669" layer="-1.00" shape="350.49,575.88 379.73,559.36 374.84,550.76 345.60,567.28 350.49,575.88" type="building"/>
   <poly color="red" fill="1" id="103505670" layer="-1.00" shape="364.95,385.37 344.15,388.96 345.45,396.45 366.24,392.87 364.95,385.37" type="building"/>
   <poly color="red" fill="1" id="103505671" layer="-1.00" shape="423.89,661.93 428.45,670.36 437.98,665.22 439.58,668.16 455.25,659.73 449.08,648.35 423.89,661.93" type="building"/>
   <poly color="red" fill="1" id="103505672" layer="-1.00" shape="574.59,623.63 552.43,586.24 543.17,591.70 565.32,629.08 574.59,623.63" type="building"/>
   <poly color="red" fill="1" id="103505673" layer="-1.00" shape="441.75,597.81 423.62,548.19 412.40,552.29 430.54,601.91 441.75,597.81" type="building"/>
   <poly color="red" fill="1" id="103505674" layer="-1.00" shape="359.85,616.64 350.83,622.15 379.40,668.98 388.42,663.49 359.85,616.64" type="building"/>
   <poly color="red" fill="1" id="103505676" layer="-1.00" shape="338.41,639.00 333.52,630.72 305.26,647.28 310.14,655.56 338.41,639.00" type="building"/>
   <poly color="red" fill="1" id="103505677" layer="-1.00" shape="576.26,426.99 584.80,466.06 595.11,463.82 586.58,424.75 576.26,426.99" type="building"/>
   <poly color="red" fill="1" id="103505678" layer="-1.00" shape="354.55,662.65 343.92,643.79 338.88,646.59 349.94,665.19 354.55,662.65" type="building"/>
   <poly color="red" fill="1" id="103678706" layer="-1.00" shape="689.32,255.77 691.64,259.75 700.09,254.84 711.28,248.33 719.88,243.33 759.28,220.44 757.00,216.54 741.07,225.79 706.50,166.67 693.36,174.30 696.39,179.47 693.16,181.35 691.19,177.99 673.33,188.37 677.54,195.56 678.46,195.03 682.82,202.48 681.35,203.33 685.78,210.92 704.63,199.95 703.87,198.64 707.00,196.82 728.24,233.15 727.01,233.87 689.32,255.77" type="building"/>
   <poly color="red" fill="1" id="103678707" layer="-1.00" shape="615.46,220.91 631.36,248.15 619.95,254.77 628.36,269.18 651.18,255.95 626.87,214.30 615.46,220.91" type="building"/>
   <poly color="red" fill="1" id="103678708" layer="-1.00" shape="712.56,320.89 706.91,310.48 698.19,315.18 703.85,325.59 712.56,320.89" type="building"/>
   <poly color="red" fill="1" id="103678709" layer="-1.00" shape="554.52,204.31 564.20,219.96 574.00,213.94 564.32,198.28 554.52,204.31" type="building"/>
   <poly color="red" fill="1" id="103678710" layer="-1.00" shape="508.50,125.71 513.49,133.79 523.05,127.91 518.06,119.85 508.50,125.71" type="building"/>
   <poly color="red" fill="1" id="103678711" layer="-1.00" shape="621.66,181.79 615.09,170.39 607.84,174.54 614.42,185.94 621.66,181.79" type="building"/>
   <poly color="red" fill="1" id="103678712" layer="-1.00" shape="628.25,168.72 633.20,177.32 644.82,170.67 639.86,162.07 628.25,168.72" type="building"/>
   <poly color="red" fill="1" id="103678713" layer="-1.00" shape="534.64,107.63 540.93,118.87 549.37,121.13 556.07,101.52 538.14,96.10 534.64,107.63" type="building"/>
   <poly color="red" fill="1" id="103678714" layer="-1.00" shape="670.63,314.31 680.89,308.63 673.75,295.80 666.38,299.88 669.04,304.68 666.84,305.90 663.28,299.50 655.77,303.64 658.40,308.36 656.46,309.43 652.62,302.52 644.85,306.82 652.07,319.79 659.07,315.92 660.32,318.16 669.85,312.89 670.63,314.31" type="building"/>
   <poly color="red" fill="1" id="103678715" layer="-1.00" shape="592.00,203.18 585.04,191.10 578.24,195.00 585.20,207.07 592.00,203.18" type="building"/>
   <poly color="red" fill="1" id="103678716" layer="-1.00" shape="746.42,308.32 755.04,303.29 719.88,243.33 711.28,248.33 715.73,255.91 704.54,262.43 700.09,254.84 691.64,259.75 726.88,319.82 736.04,314.48 730.78,305.50 741.21,299.43 746.42,308.32" type="building"/>
   <poly color="red" fill="1" id="103678717" layer="-1.00" shape="524.35,142.63 530.24,152.18 547.62,141.51 541.72,131.96 524.35,142.63" type="building"/>
   <poly color="red" fill="1" id="103678718" layer="-1.00" shape="534.26,157.08 538.71,164.28 550.72,156.90 546.27,149.71 534.26,157.08" type="building"/>
   <poly color="red" fill="1" id="103678719" layer="-1.00" shape="668.06,140.51 673.04,149.15 683.75,143.02 678.77,134.38 668.06,140.51" type="building"/>
   <poly color="red" fill="1" id="103678720" layer="-1.00" shape="527.90,122.14 531.56,128.06 538.32,123.90 534.66,117.99 527.90,122.14" type="building"/>
   <poly color="red" fill="1" id="103678721" layer="-1.00" shape="701.41,213.75 695.64,217.05 703.75,231.13 709.52,227.84 701.41,213.75" type="building"/>
   <poly color="red" fill="1" id="103687109" layer="-1.00" shape="632.73,141.47 637.72,125.03 629.50,122.54 624.51,138.99 632.73,141.47" type="building"/>
   <poly color="red" fill="1" id="103687110" layer="-1.00" shape="582.81,92.99 588.90,72.51 578.39,67.62 569.78,77.57 581.34,81.84 577.80,91.88 582.81,92.99" type="building"/>
   <poly color="red" fill="1" id="103687111" layer="-1.00" shape="680.98,116.37 662.80,110.87 666.08,100.09 676.03,103.10 674.93,106.74 683.14,109.23 680.98,116.37" type="building"/>
   <poly color="red" fill="1" id="103687112" layer="-1.00" shape="668.51,154.43 657.76,160.59 658.65,162.14 655.19,164.12 648.63,152.74 652.66,150.42 654.16,153.00 664.33,147.18 668.51,154.43" type="building"/>
   <poly color="red" fill="1" id="103687113" layer="-1.00" shape="581.42,149.60 584.69,138.86 572.13,135.06 568.87,145.80 581.42,149.60" type="building"/>
   <poly color="red" fill="1" id="103687114" layer="-1.00" shape="653.27,25.38 656.90,31.35 664.22,26.92 660.58,20.95 653.27,25.38" type="building"/>
   <poly color="red" fill="1" id="103687115" layer="-1.00" shape="668.42,45.45 672.46,52.09 682.29,46.13 678.25,39.50 668.42,45.45" type="building"/>
   <poly color="red" fill="1" id="103687116" layer="-1.00" shape="649.06,55.30 637.77,61.27 642.43,70.04 653.72,64.07 649.06,55.30" type="building"/>
   <poly color="red" fill="1" id="103687117" layer="-1.00" shape="597.96,96.27 602.17,82.43 593.02,79.66 588.81,93.51 597.96,96.27" type="building"/>
   <poly color="red" fill="1" id="103687118" layer="-1.00" shape="603.95,164.11 599.36,156.14 595.17,158.55 599.77,166.51 603.95,164.11" type="building"/>
   <poly color="red" fill="1" id="103687119" layer="-1.00" shape="639.37,17.74 645.71,26.52 658.76,18.13 652.90,7.88 639.37,17.74" type="building"/>
   <poly color="red" fill="1" id="103687120" layer="-1.00" shape="563.54,121.46 569.04,103.41 562.07,101.31 556.58,119.36 563.54,121.46" type="building"/>
   <poly color="red" fill="1" id="103687122" layer="-1.00" shape="611.71,58.05 615.76,55.10 609.53,46.60 605.49,49.54 611.71,58.05" type="building"/>
   <poly color="red" fill="1" id="103687123" layer="-1.00" shape="538.15,173.07 553.71,163.50 559.87,173.47 544.31,183.04 538.15,173.07" type="building"/>
   <poly color="red" fill="1" id="103687124" layer="-1.00" shape="570.15,183.51 566.32,185.90 571.14,193.59 574.97,191.21 570.15,183.51" type="building"/>
   <poly color="red" fill="1" id="103687125" layer="-1.00" shape="579.04,49.90 570.68,58.67 581.51,68.95 589.88,60.19 579.04,49.90" type="building"/>
   <poly color="red" fill="1" id="103687126" layer="-1.00" shape="544.06,185.58 547.52,191.19 557.31,185.17 553.84,179.57 544.06,185.58" type="building"/>
   <poly color="red" fill="1" id="103687127" layer="-1.00" shape="613.25,99.79 618.93,81.09 609.91,78.36 604.23,97.06 613.25,99.79" type="building"/>
   <poly color="red" fill="1" id="103687128" layer="-1.00" shape="693.38,83.76 697.21,90.05 706.28,84.56 702.45,78.27 693.38,83.76" type="building"/>
   <poly color="red" fill="1" id="103687129" layer="-1.00" shape="625.00,44.29 630.17,52.40 641.26,45.37 636.09,37.26 625.00,44.29" type="building"/>
   <poly color="red" fill="1" id="103687130" layer="-1.00" shape="619.96,99.11 624.84,83.04 636.24,86.49 633.62,95.09 637.57,96.29 634.46,106.54 628.29,104.68 629.14,101.90 619.96,99.11" type="building"/>
   <poly color="red" fill="1" id="103687131" layer="-1.00" shape="605.32,146.45 616.46,149.82 618.89,141.84 607.75,138.48 605.32,146.45" type="building"/>
   <poly color="red" fill="1" id="103687132" layer="-1.00" shape="721.28,103.14 713.26,108.00 718.61,116.79 713.44,119.93 719.08,129.19 723.69,126.41 732.27,121.21 721.28,103.14" type="building"/>
   <poly color="red" fill="1" id="103687133" layer="-1.00" shape="649.81,36.93 654.60,44.79 674.02,33.05 669.23,25.17 649.81,36.93" type="building"/>
   <poly color="red" fill="1" id="103687134" layer="-1.00" shape="555.64,77.84 563.92,84.30 573.71,71.81 565.42,65.34 555.64,77.84" type="building"/>
   <poly color="red" fill="1" id="103687135" layer="-1.00" shape="645.47,154.57 641.17,147.10 636.99,149.51 641.29,156.96 645.47,154.57" type="building"/>
   <poly color="red" fill="1" id="103687136" layer="-1.00" shape="659.31,109.89 639.00,103.74 642.56,92.05 651.18,94.65 649.90,98.87 661.58,102.40 659.31,109.89" type="building"/>
   <poly color="red" fill="1" id="103687137" layer="-1.00" shape="579.41,118.79 589.41,121.81 593.26,109.11 586.37,107.03 586.78,105.65 578.73,103.21 576.45,110.73 581.41,112.22 579.41,118.79" type="building"/>
   <poly color="red" fill="1" id="103687138" layer="-1.00" shape="652.16,139.65 655.26,129.47 647.93,127.26 644.83,137.43 652.16,139.65" type="building"/>
   <poly color="red" fill="1" id="103687139" layer="-1.00" shape="603.66,130.16 608.25,115.08 600.23,112.66 595.65,127.74 603.66,130.16" type="building"/>
   <poly color="red" fill="1" id="103687140" layer="-1.00" shape="606.59,27.67 600.44,34.11 612.88,45.92 619.03,39.47 606.59,27.67" type="building"/>
   <poly color="red" fill="1" id="103687141" layer="-1.00" shape="691.70,116.60 695.30,124.11 712.23,116.03 708.63,108.53 691.70,116.60" type="building"/>
   <poly color="red" fill="1" id="103687142" layer="-1.00" shape="700.03,102.58 703.58,108.41 716.16,100.79 712.62,94.97 700.03,102.58" type="building"/>
   <poly color="red" fill="1" id="103687143" layer="-1.00" shape="595.97,40.43 586.41,46.05 594.16,56.29 602.23,51.26 595.97,40.43" type="building"/>
   <poly color="red" fill="1" id="103687144" layer="-1.00" shape="684.44,66.79 687.95,72.55 695.22,68.15 691.71,62.40 684.44,66.79" type="building"/>
   <poly color="red" fill="1" id="103687145" layer="-1.00" shape="549.43,193.67 553.49,200.26 563.14,194.32 559.08,187.74 549.43,193.67" type="building"/>
   <poly color="red" fill="1" id="103687146" layer="-1.00" shape="613.37,17.54 622.98,30.66 630.01,25.55 639.46,38.43 644.69,34.63 634.09,20.15 631.59,21.96 623.14,10.42 613.37,17.54" type="building"/>
   <poly color="red" fill="1" id="103687147" layer="-1.00" shape="633.68,161.56 626.22,148.62 618.96,152.78 626.42,165.72 633.68,161.56" type="building"/>
   <poly color="red" fill="1" id="103767807" layer="-1.00" shape="719.50,286.69 727.54,300.56 737.60,294.75 729.56,280.89 719.50,286.69" type="building"/>
   <poly color="194,194,130" fill="1" id="103767807#1" layer="-3.00" shape="719.50,286.69 727.54,300.56 737.60,294.75 729.56,280.89 719.50,286.69" type="landuse"/>
   <poly color="red" fill="1" id="103767808" layer="-1.00" shape="716.91,281.36 726.15,276.03 718.65,263.11 709.42,268.44 716.91,281.36" type="building"/>
   <poly color="194,194,130" fill="1" id="103767808#1" layer="-3.00" shape="716.91,281.36 726.15,276.03 718.65,263.11 709.42,268.44 716.91,281.36" type="landuse"/>
   <poly color="red" fill="1" id="103773042" layer="-1.00" shape="808.17,273.96 803.21,266.04 809.43,262.16 811.47,265.42 808.17,273.96" type="building"/>
   <poly color="red" fill="1" id="103773045" layer="-1.00" shape="787.42,204.30 791.75,211.99 801.20,206.70 796.87,199.01 787.42,204.30" type="building"/>
   <poly color="red" fill="1" id="103773048" layer="-1.00" shape="750.64,150.03 745.88,141.57 737.24,146.41 742.00,154.87 750.64,150.03" type="building"/>
   <poly color="red" fill="1" id="103773051" layer="-1.00" shape="783.21,230.16 787.16,237.17 802.77,228.43 798.82,221.41 783.21,230.16" type="building"/>
   <poly color="red" fill="1" id="103773053" layer="-1.00" shape="778.98,141.11 788.18,135.80 783.77,128.23 774.57,133.54 778.98,141.11" type="building"/>
   <poly color="red" fill="1" id="103773060" layer="-1.00" shape="811.43,214.40" type="building"/>
   <poly color="red" fill="1" id="103773061" layer="-1.00" shape="817.54,175.97" type="building"/>
   <poly color="red" fill="1" id="103773066" layer="-1.00" shape="764.31,142.72 757.58,131.16 750.20,135.41 756.93,146.99 764.31,142.72" type="building"/>
   <poly color="red" fill="1" id="103773068" layer="-1.00" shape="768.61,182.40 763.42,173.20 755.15,177.83 760.34,187.03 768.61,182.40" type="building"/>
   <poly color="red" fill="0" id="103773070" layer="-1.00" shape="809.92,107.22 803.19,110.97 816.27,134.38" type="building"/>
   <poly color="red" fill="1" id="103773072" layer="-1.00" shape="811.38,137.36 799.41,144.28 794.85,136.45 792.18,138.00 785.41,126.34 800.05,117.88 811.38,137.36" type="building"/>
   <poly color="237,199,255" fill="1" id="103773072#1" layer="-1.00" shape="811.38,137.36 799.41,144.28 794.85,136.45 792.18,138.00 785.41,126.34 800.05,117.88 811.38,137.36" type="shop"/>
   <poly color="red" fill="1" id="103773073" layer="-1.00" shape="765.64,128.02 769.28,134.27 780.48,127.80 776.85,121.55 765.64,128.02" type="building"/>
   <poly color="red" fill="1" id="103773074" layer="-1.00" shape="776.13,181.94 779.75,188.37 791.15,181.98 787.54,175.55 776.13,181.94" type="building"/>
   <poly color="red" fill="1" id="103773076" layer="-1.00" shape="760.88,170.08 755.46,173.11 753.24,169.17 749.22,171.42 743.64,161.53 753.08,156.25 760.88,170.08" type="building"/>
   <poly color="red" fill="0" id="103773077" layer="-1.00" shape="632.77,2.64 637.88,9.78" type="building"/>
   <poly color="red" fill="1" id="103773078" layer="-1.00" shape="782.77,164.99 776.07,153.10 765.32,159.12 769.45,166.46 765.31,168.78 767.87,173.33 782.77,164.99" type="building"/>
   <poly color="red" fill="1" id="103773082" layer="-1.00" shape="765.10,197.16 768.57,203.32 777.83,198.13 774.36,191.98 765.10,197.16" type="building"/>
   <poly color="red" fill="1" id="103773083" layer="-1.00" shape="772.70,212.70 777.26,220.80 786.45,215.65 781.89,207.55 772.70,212.70" type="building"/>
   <poly color="red" fill="1" id="103773084" layer="-1.00" shape="799.74,191.07 809.08,185.60 803.55,176.22 794.22,181.69 799.74,191.07" type="building"/>
   <poly color="red" fill="1" id="103806250" layer="-1.00" shape="821.13,98.37" type="building"/>
   <poly color="red" fill="1" id="103830278" layer="-1.00" shape="660.77,382.04 664.98,389.35 674.82,383.72 670.61,376.41 660.77,382.04" type="building"/>
   <poly color="red" fill="1" id="103830284" layer="-1.00" shape="706.12,376.25 712.65,387.24 726.53,379.05 719.99,368.06 706.12,376.25" type="building"/>
   <poly color="red" fill="1" id="103830288" layer="-1.00" shape="779.85,398.33 773.78,388.12 765.61,392.96 771.68,403.15 779.85,398.33" type="building"/>
   <poly color="red" fill="1" id="103830289" layer="-1.00" shape="700.73,412.15 705.36,419.94 718.85,411.97 714.21,404.18 700.73,412.15" type="building"/>
   <poly color="red" fill="1" id="103830293" layer="-1.00" shape="677.33,372.64 681.36,379.44 689.41,374.69 685.38,367.90 677.33,372.64" type="building"/>
   <poly color="red" fill="1" id="103830295" layer="-1.00" shape="794.02,303.31 786.82,307.56 793.61,319.00 800.81,314.75 794.02,303.31" type="building"/>
   <poly color="red" fill="1" id="103830299" layer="-1.00" shape="800.36,386.65 791.16,371.19 778.44,378.72 787.63,394.17 800.36,386.65" type="building"/>
   <poly color="red" fill="1" id="103830300" layer="-1.00" shape="711.89,426.49 716.60,434.42 727.78,427.81 723.07,419.90 711.89,426.49" type="building"/>
   <poly color="red" fill="1" id="103830301" layer="-1.00" shape="694.48,386.11 702.89,381.30 698.45,373.59 690.04,378.39 694.48,386.11" type="building"/>
   <poly color="red" fill="1" id="103830307" layer="-1.00" shape="769.95,358.86 780.98,352.34 766.66,328.21 755.62,334.72 769.95,358.86" type="building"/>
   <poly color="red" fill="1" id="103830312" layer="-1.00" shape="777.49,336.21 782.63,344.87 793.64,338.37 788.49,329.72 777.49,336.21" type="building"/>
   <poly color="red" fill="1" id="103830317" layer="-1.00" shape="677.99,412.50 691.48,404.78 708.74,436.13 696.01,442.93 677.99,412.50" type="building"/>
   <poly color="red" fill="1" id="103830321" layer="-1.00" shape="675.91,409.02 690.27,400.80 686.98,395.08 672.62,403.30 675.91,409.02" type="building"/>
   <poly color="red" fill="1" id="103830322" layer="-1.00" shape="677.58,392.28 683.31,388.89 680.52,384.20 674.78,387.58 677.58,392.28" type="building"/>
   <poly color="red" fill="1" id="103830323" layer="-1.00" shape="802.52,327.30 809.77,311.40 797.41,318.69 802.52,327.30" type="building"/>