<?xml version="1.0" encoding="utf-8"?><!-- generated on 10/11/17 17:54:27 by SUMO netconvert Version 0.25.0
<?xml version="1.0" encoding="UTF-8"?>

<configuration xmlns:xsi="http://www.w3.org/2001/XMLSchema-instance" xsi:noNamespaceSchemaLocation="http://sumo.dlr.de/xsd/netconvertConfiguration.xsd">

    <input>
        <type-files value="osmNetconvert.typ.xml"/>
        <osm-files value="IN_FeStr_urban_800.osm"/>
    </input>

    <output>
        <output-file value="IN_FeStr_urban_800.net.xml"/>
    </output>

    <projection>
        <proj.utm value="true"/>
    </projection>

    <edge_removal>
        <remove-edges.by-type value="highway.track,highway.unsurfaced,highway.raceway,highway.bridleway,highway.path,highway.footway,highway.pedestrian,highway.cycleway,highway.step,highway.steps,highway.stairs,highway.bus_guideway,highway.ford,railway.rail,railway.tram,railway.light_rail,railway.subway,railway.preserved,railway.narrow_gauge,railway.monorail,railway.funicular"/>
    </edge_removal>

</configuration>
-->
<net version="0.25">
   <location convBoundary="0.00,0.00,808.59,802.44" netOffset="-678921.60,-5402731.17" origBoundary="11.434537,48.751730,11.445405,48.758896" projParameter="+proj=utm +zone=32 +ellps=WGS84 +datum=WGS84 +units=m +no_defs"/>
   <type allow="pedestrian" id="highway.bridleway" numLanes="1" oneway="1" priority="1" speed="2.78" width="2.00"/>
   <type allow="bus" id="highway.bus_guideway" numLanes="1" oneway="1" priority="1" speed="8.33"/>
   <type allow="bicycle" id="highway.cycleway" numLanes="1" oneway="0" priority="1" speed="5.56" width="1.00"/>
   <type allow="pedestrian" id="highway.footway" numLanes="1" oneway="1" priority="1" speed="8.33" width="2.00"/>
   <type allow="army" id="highway.ford" numLanes="1" oneway="0" priority="1" speed="2.78"/>
   <type disallow="tram rail_urban rail rail_electric ship" id="highway.living_street" numLanes="1" oneway="0" priority="3" speed="2.78"/>
   <type allow="private emergency authority army vip passenger hov taxi bus coach delivery truck trailer motorcycle evehicle custom1 custom2" id="highway.motorway" numLanes="2" oneway="1" priority="13" speed="44.44"/>
   <type allow="private emergency authority army vip passenger hov taxi bus coach delivery truck trailer motorcycle evehicle custom1 custom2" id="highway.motorway_link" numLanes="1" oneway="1" priority="12" speed="22.22"/>
   <type allow="bicycle pedestrian" id="highway.path" numLanes="1" oneway="1" priority="1" speed="2.78" width="2.00"/>
   <type allow="pedestrian" id="highway.pedestrian" numLanes="1" oneway="1" priority="1" speed="8.33" width="2.00"/>
   <type disallow="tram rail_urban rail rail_electric ship" id="highway.primary" numLanes="2" oneway="0" priority="9" speed="27.78"/>
   <type disallow="tram rail_urban rail rail_electric ship" id="highway.primary_link" numLanes="1" oneway="0" priority="8" speed="22.22"/>
   <type allow="vip" id="highway.raceway" numLanes="2" oneway="0" priority="14" speed="83.33"/>
   <type disallow="tram rail_urban rail rail_electric ship" id="highway.residential" numLanes="1" oneway="0" priority="4" speed="13.89"/>
   <type disallow="tram rail_urban rail rail_electric ship" id="highway.secondary" numLanes="2" oneway="0" priority="7" speed="27.78"/>
   <type disallow="tram rail_urban rail rail_electric ship" id="highway.secondary_link" numLanes="1" oneway="0" priority="6" speed="22.22"/>
   <type allow="delivery bicycle pedestrian" id="highway.service" numLanes="1" oneway="0" priority="2" speed="5.56"/>
   <type disallow="tram rail_urban rail rail_electric ship" id="highway.services" numLanes="1" oneway="0" priority="1" speed="8.33"/>
   <type allow="pedestrian" id="highway.stairs" numLanes="1" oneway="1" priority="1" speed="1.39" width="2.00"/>
   <type allow="pedestrian" id="highway.step" numLanes="1" oneway="1" priority="1" speed="1.39" width="2.00"/>
   <type allow="pedestrian" id="highway.steps" numLanes="1" oneway="1" priority="1" speed="1.39" width="2.00"/>
   <type disallow="tram rail_urban rail rail_electric ship" id="highway.tertiary" numLanes="1" oneway="0" priority="6" speed="22.22"/>
   <type disallow="tram rail_urban rail rail_electric ship" id="highway.tertiary_link" numLanes="1" oneway="0" priority="5" speed="22.22"/>
   <type disallow="tram rail_urban rail rail_electric ship" id="highway.track" numLanes="1" oneway="0" priority="1" speed="5.56"/>
   <type disallow="tram rail_urban rail rail_electric bicycle pedestrian ship" id="highway.trunk" numLanes="2" oneway="0" priority="11" speed="27.78"/>
   <type disallow="tram rail_urban rail rail_electric bicycle pedestrian ship" id="highway.trunk_link" numLanes="1" oneway="0" priority="10" speed="22.22"/>
   <type disallow="tram rail_urban rail rail_electric ship" id="highway.unclassified" numLanes="1" oneway="0" priority="5" speed="13.89"/>
   <type disallow="tram rail_urban rail rail_electric ship" id="highway.unsurfaced" numLanes="1" oneway="0" priority="1" speed="8.33"/>
   <type allow="rail_urban" id="railway.light_rail" numLanes="1" oneway="1" priority="15" speed="27.78"/>
   <type allow="rail" id="railway.preserved" numLanes="1" oneway="1" priority="15" speed="27.78"/>
   <type allow="rail rail_electric" id="railway.rail" numLanes="1" oneway="1" priority="15" speed="83.33"/>
   <type allow="rail_urban" id="railway.subway" numLanes="1" oneway="1" priority="15" speed="27.78"/>
   <type allow="tram" id="railway.tram" numLanes="1" oneway="1" priority="15" speed="13.89"/>
   <edge function="internal" id=":1197458639_0">
      <lane disallow="tram rail_urban rail rail_electric ship" id=":1197458639_0_0" index="0" length="0.10" shape="218.07,539.83 218.09,539.85" speed="13.89"/>
      <lane disallow="tram rail_urban rail rail_electric ship" id=":1197458639_0_1" index="1" length="0.10" shape="215.49,541.89 215.52,541.92" speed="13.89"/>
   </edge>
   <edge function="internal" id=":1197458660_0">
      <lane disallow="tram rail_urban rail rail_electric ship" id=":1197458660_0_0" index="0" length="1.32" shape="334.79,355.67 333.49,355.87" speed="13.89"/>
   </edge>
   <edge function="internal" id=":1197458660_1">
      <lane disallow="tram rail_urban rail rail_electric ship" id=":1197458660_1_0" index="0" length="2.41" shape="334.79,355.67 333.37,355.23 332.74,354.56" speed="13.89"/>
   </edge>
   <edge function="internal" id=":1197458660_4">
      <lane id=":1197458660_4_0" index="0" length="2.41" shape="332.74,354.56 332.91,353.65 333.86,352.51" speed="13.89"/>
   </edge>
   <edge function="internal" id=":1197458660_2">
      <lane disallow="tram rail_urban rail rail_electric ship" id=":1197458660_2_0" index="0" length="0.43" shape="333.43,352.57 333.86,352.51" speed="13.89"/>
   </edge>
   <edge function="internal" id=":1197458660_3">
      <lane disallow="tram rail_urban rail rail_electric ship" id=":1197458660_3_0" index="0" length="2.41" shape="333.43,352.57 334.68,353.38 335.11,354.20" speed="13.89"/>
   </edge>
   <edge function="internal" id=":1197458660_5">
      <lane id=":1197458660_5_0" index="0" length="2.41" shape="335.11,354.20 334.71,355.03 333.49,355.87" speed="13.89"/>
   </edge>
   <edge function="internal" id=":1197458992_0">
      <lane disallow="tram rail_urban rail rail_electric ship" id=":1197458992_0_0" index="0" length="0.97" shape="131.81,350.16 130.89,350.46" speed="8.33"/>
   </edge>
   <edge function="internal" id=":1197458992_1">
      <lane disallow="tram rail_urban rail rail_electric ship" id=":1197458992_1_0" index="0" length="2.41" shape="131.81,350.16 130.35,349.90 129.64,349.31" speed="8.33"/>
   </edge>
   <edge function="internal" id=":1197458992_4">
      <lane id=":1197458992_4_0" index="0" length="2.41" shape="129.64,349.31 129.69,348.39 130.49,347.13" speed="8.33"/>
   </edge>
   <edge function="internal" id=":1197458992_2">
      <lane disallow="tram rail_urban rail rail_electric ship" id=":1197458992_2_0" index="0" length="0.32" shape="130.19,347.23 130.49,347.13" speed="8.33"/>
   </edge>
   <edge function="internal" id=":1197458992_3">
      <lane disallow="tram rail_urban rail rail_electric ship" id=":1197458992_3_0" index="0" length="2.41" shape="130.19,347.23 131.57,347.77 132.15,348.49" speed="8.33"/>
   </edge>
   <edge function="internal" id=":1197458992_5">
      <lane id=":1197458992_5_0" index="0" length="2.41" shape="132.15,348.49 131.92,349.39 130.89,350.46" speed="8.33"/>
   </edge>
   <edge function="internal" id=":1307952728_0">
      <lane allow="delivery bicycle pedestrian" id=":1307952728_0_0" index="0" length="4.82" shape="717.31,592.69 717.40,591.21 717.90,590.43 718.82,590.38 720.16,591.03" speed="5.56"/>
   </edge>
   <edge function="internal" id=":1307952731_0">
      <lane disallow="tram rail_urban rail rail_electric ship" id=":1307952731_0_0" index="0" length="4.35" shape="528.95,702.43 528.75,701.33 528.80,700.28 529.10,699.26 529.65,698.29" speed="2.78"/>
   </edge>
   <edge function="internal" id=":1307952731_1">
      <lane disallow="tram rail_urban rail rail_electric ship" id=":1307952731_1_0" index="0" length="2.86" shape="528.95,702.43 529.40,701.02 530.08,700.40 530.52,700.48" speed="2.78"/>
   </edge>
   <edge function="internal" id=":1307952731_4">
      <lane id=":1307952731_4_0" index="0" length="1.96" shape="530.52,700.48 530.99,700.57 532.12,701.53" speed="2.78"/>
   </edge>
   <edge function="internal" id=":1307952731_2">
      <lane disallow="tram rail_urban rail rail_electric ship" id=":1307952731_2_0" index="0" length="1.42" shape="532.35,700.18 532.17,700.50 532.07,700.83 532.06,701.17 532.12,701.53" speed="2.78"/>
   </edge>
   <edge function="internal" id=":1307952731_3">
      <lane disallow="tram rail_urban rail rail_electric ship" id=":1307952731_3_0" index="0" length="2.07" shape="532.35,700.18 530.96,700.72 530.39,700.63" speed="2.78"/>
   </edge>
   <edge function="internal" id=":1307952731_5">
      <lane id=":1307952731_5_0" index="0" length="2.75" shape="530.39,700.63 530.05,700.58 529.61,699.77 529.65,698.29" speed="2.78"/>
   </edge>
   <edge function="internal" id=":1307952744_0">
      <lane allow="delivery bicycle pedestrian" id=":1307952744_0_0" index="0" length="8.03" shape="795.43,633.10 796.29,635.13 796.29,636.94 795.42,638.53 793.69,639.89" speed="6.95"/>
   </edge>
   <edge function="internal" id=":1307952744_1">
      <lane disallow="tram rail_urban rail rail_electric ship" id=":1307952744_1_0" index="0" length="4.82" shape="795.43,633.10 795.36,634.59 794.87,635.37 793.95,635.45 792.61,634.82" speed="8.33"/>
   </edge>
   <edge function="internal" id=":1307952744_2">
      <lane disallow="tram rail_urban rail rail_electric ship" id=":1307952744_2_0" index="0" length="2.62" shape="792.04,637.03 792.61,636.59 792.89,636.07 792.89,635.48 792.61,634.82" speed="6.95"/>
   </edge>
   <edge function="internal" id=":1307952744_3">
      <lane allow="delivery bicycle pedestrian" id=":1307952744_3_0" index="0" length="4.82" shape="792.04,637.03 793.52,637.13 794.29,637.64 794.35,638.56 793.69,639.89" speed="5.56"/>
   </edge>
   <edge function="internal" id=":1307952775_0">
      <lane disallow="tram rail_urban rail rail_electric ship" id=":1307952775_0_0" index="0" length="4.82" shape="706.55,594.09 708.04,594.23 708.79,594.76 708.82,595.68 708.13,596.99" speed="2.78"/>
   </edge>
   <edge function="internal" id=":1328156421_0">
      <lane disallow="tram rail_urban rail rail_electric ship" id=":1328156421_0_0" index="0" length="7.92" shape="729.81,694.21 730.63,696.22 730.61,698.01 729.75,699.57 728.04,700.92" speed="5.56"/>
   </edge>
   <edge function="internal" id=":1328156421_1">
      <lane disallow="tram rail_urban rail rail_electric ship" id=":1328156421_1_0" index="0" length="4.82" shape="729.81,694.21 729.72,695.69 729.22,696.47 728.30,696.53 726.96,695.87" speed="2.78"/>
   </edge>
   <edge function="internal" id=":1328156421_2">
      <lane disallow="tram rail_urban rail rail_electric ship" id=":1328156421_2_0" index="0" length="2.59" shape="726.39,698.06 726.94,697.63 727.22,697.11 727.23,696.53 726.96,695.87" speed="5.56"/>
   </edge>
   <edge function="internal" id=":1328156421_3">
      <lane disallow="tram rail_urban rail rail_electric ship" id=":1328156421_3_0" index="0" length="4.82" shape="726.39,698.06 727.87,698.16 728.64,698.66 728.70,699.58 728.04,700.92" speed="8.33"/>
   </edge>
   <edge function="internal" id=":1328156431_0">
      <lane allow="delivery bicycle pedestrian" id=":1328156431_0_0" index="0" length="4.82" shape="637.86,700.74 637.77,702.22 637.27,703.00 636.35,703.06 635.01,702.40" speed="5.56"/>
   </edge>
   <edge function="internal" id=":1328156475_0">
      <lane disallow="tram rail_urban rail rail_electric ship" id=":1328156475_0_0" index="0" length="5.01" shape="644.34,636.54 643.49,635.46 642.50,634.91 641.36,634.89 640.09,635.41" speed="4.17"/>
   </edge>
   <edge function="internal" id=":1328156475_1">
      <lane disallow="tram rail_urban rail rail_electric ship" id=":1328156475_1_0" index="0" length="10.33" shape="644.34,636.54 643.27,633.92 643.30,631.58 644.43,629.54 646.65,627.78" speed="4.17"/>
   </edge>
   <edge function="internal" id=":1328156475_2">
      <lane allow="delivery bicycle pedestrian" id=":1328156475_2_0" index="0" length="4.82" shape="644.34,636.54 644.43,635.05 644.93,634.28 645.85,634.22 647.19,634.87" speed="5.56"/>
   </edge>
   <edge function="internal" id=":1328156475_3">
      <lane allow="delivery bicycle pedestrian" id=":1328156475_3_0" index="0" length="5.00" shape="648.31,630.64 647.23,631.48 646.69,632.47 646.67,633.60 647.19,634.87" speed="4.17"/>
   </edge>
   <edge function="internal" id=":1328156475_4">
      <lane disallow="tram rail_urban rail rail_electric ship" id=":1328156475_4_0" index="0" length="9.50" shape="648.31,630.64 640.09,635.41" speed="2.78"/>
   </edge>
   <edge function="internal" id=":1328156475_5">
      <lane disallow="tram rail_urban rail rail_electric ship" id=":1328156475_5_0" index="0" length="2.41" shape="648.31,630.64 646.83,630.54 646.05,630.04" speed="2.78"/>
   </edge>
   <edge function="internal" id=":1328156475_9">
      <lane id=":1328156475_9_0" index="0" length="2.41" shape="646.05,630.04 646.00,629.12 646.65,627.78" speed="2.78"/>
   </edge>
   <edge function="internal" id=":1328156475_6">
      <lane disallow="tram rail_urban rail rail_electric ship" id=":1328156475_6_0" index="0" length="9.50" shape="638.44,632.55 646.65,627.78" speed="2.78"/>
   </edge>
   <edge function="internal" id=":1328156475_7">
      <lane allow="delivery bicycle pedestrian" id=":1328156475_7_0" index="0" length="5.27" shape="638.44,632.55 641.06,631.50 643.39,631.53 643.49,631.59" speed="4.17"/>
   </edge>
   <edge function="internal" id=":1328156475_8">
      <lane disallow="tram rail_urban rail rail_electric ship" id=":1328156475_8_0" index="0" length="2.41" shape="638.44,632.55 639.92,632.64 640.69,633.15" speed="2.78"/>
   </edge>
   <edge function="internal" id=":1328156475_10">
      <lane id=":1328156475_10_0" index="0" length="5.05" shape="643.49,631.59 645.43,632.66 647.19,634.87" speed="4.17"/>
   </edge>
   <edge function="internal" id=":1328156475_11">
      <lane id=":1328156475_11_0" index="0" length="2.41" shape="640.69,633.15 640.75,634.07 640.09,635.41" speed="2.78"/>
   </edge>
   <edge function="internal" id=":1328156485_0">
      <lane disallow="tram rail_urban rail rail_electric ship" id=":1328156485_0_0" index="0" length="5.09" shape="680.19,615.83 679.32,614.72 678.31,614.14 677.17,614.11 675.90,614.61" speed="2.78"/>
   </edge>
   <edge function="internal" id=":1328156485_1">
      <lane disallow="tram rail_urban rail rail_electric ship" id=":1328156485_1_0" index="0" length="10.49" shape="680.19,615.83 679.11,613.16 679.15,610.80 680.34,608.76 682.65,607.04" speed="2.78"/>
   </edge>
   <edge function="internal" id=":1328156485_2">
      <lane disallow="tram rail_urban rail rail_electric ship" id=":1328156485_2_0" index="0" length="4.82" shape="680.19,615.83 680.28,614.35 680.79,613.58 681.71,613.52 683.04,614.17" speed="2.78"/>
   </edge>
   <edge function="internal" id=":1328156485_3">
      <lane disallow="tram rail_urban rail rail_electric ship" id=":1328156485_3_0" index="0" length="5.04" shape="684.22,609.94 683.11,610.77 682.54,611.75 682.52,612.88 683.04,614.17" speed="2.78"/>
   </edge>
   <edge function="internal" id=":1328156485_4">
      <lane disallow="tram rail_urban rail rail_electric ship" id=":1328156485_4_0" index="0" length="9.55" shape="684.22,609.94 675.90,614.61" speed="2.78"/>
   </edge>
   <edge function="internal" id=":1328156485_5">
      <lane disallow="tram rail_urban rail rail_electric ship" id=":1328156485_5_0" index="0" length="4.82" shape="684.22,609.94 682.74,609.81 681.99,609.28 681.96,608.36 682.65,607.04" speed="2.78"/>
   </edge>
   <edge function="internal" id=":1328156485_6">
      <lane disallow="tram rail_urban rail rail_electric ship" id=":1328156485_6_0" index="0" length="9.64" shape="674.24,611.76 682.65,607.04" speed="2.78"/>
   </edge>
   <edge function="internal" id=":1328156485_7">
      <lane disallow="tram rail_urban rail rail_electric ship" id=":1328156485_7_0" index="0" length="10.40" shape="674.24,611.76 676.86,610.71 679.20,610.76 681.26,611.91 683.04,614.17" speed="2.78"/>
   </edge>
   <edge function="internal" id=":1328156485_8">
      <lane disallow="tram rail_urban rail rail_electric ship" id=":1328156485_8_0" index="0" length="4.82" shape="674.24,611.76 675.72,611.85 676.50,612.36 676.55,613.28 675.90,614.61" speed="2.78"/>
   </edge>
   <edge function="internal" id=":1328156490_0">
      <lane allow="delivery bicycle pedestrian" id=":1328156490_0_0" index="0" length="4.82" shape="602.55,721.24 602.47,722.72 601.96,723.49 601.04,723.55 599.71,722.90" speed="5.56"/>
   </edge>
   <edge function="internal" id=":1328156530_0">
      <lane disallow="tram rail_urban rail rail_electric ship" id=":1328156530_0_0" index="0" length="5.01" shape="608.65,657.27 607.79,656.19 606.80,655.64 605.67,655.62 604.40,656.14" speed="4.17"/>
   </edge>
   <edge function="internal" id=":1328156530_1">
      <lane disallow="tram rail_urban rail rail_electric ship" id=":1328156530_1_0" index="0" length="10.33" shape="608.65,657.27 607.58,654.64 607.61,652.31 608.73,650.27 610.96,648.51" speed="4.17"/>
   </edge>
   <edge function="internal" id=":1328156530_2">
      <lane allow="delivery bicycle pedestrian" id=":1328156530_2_0" index="0" length="4.82" shape="608.65,657.27 608.73,655.78 609.24,655.01 610.16,654.95 611.50,655.60" speed="5.56"/>
   </edge>
   <edge function="internal" id=":1328156530_3">
      <lane allow="delivery bicycle pedestrian" id=":1328156530_3_0" index="0" length="5.00" shape="612.61,651.36 611.54,652.21 610.99,653.20 610.98,654.33 611.50,655.60" speed="4.17"/>
   </edge>
   <edge function="internal" id=":1328156530_4">
      <lane disallow="tram rail_urban rail rail_electric ship" id=":1328156530_4_0" index="0" length="9.50" shape="612.61,651.36 604.40,656.14" speed="2.78"/>
   </edge>
   <edge function="internal" id=":1328156530_5">
      <lane disallow="tram rail_urban rail rail_electric ship" id=":1328156530_5_0" index="0" length="2.41" shape="612.61,651.36 611.13,651.27 610.36,650.77" speed="2.78"/>
   </edge>
   <edge function="internal" id=":1328156530_9">
      <lane id=":1328156530_9_0" index="0" length="2.41" shape="610.36,650.77 610.30,649.85 610.96,648.51" speed="2.78"/>
   </edge>
   <edge function="internal" id=":1328156530_6">
      <lane disallow="tram rail_urban rail rail_electric ship" id=":1328156530_6_0" index="0" length="9.50" shape="602.74,653.28 610.96,648.51" speed="2.78"/>
   </edge>
   <edge function="internal" id=":1328156530_7">
      <lane allow="delivery bicycle pedestrian" id=":1328156530_7_0" index="0" length="5.27" shape="602.74,653.28 605.36,652.22 607.69,652.26 607.79,652.31" speed="4.17"/>
   </edge>
   <edge function="internal" id=":1328156530_8">
      <lane disallow="tram rail_urban rail rail_electric ship" id=":1328156530_8_0" index="0" length="2.41" shape="602.74,653.28 604.23,653.37 605.00,653.88" speed="2.78"/>
   </edge>
   <edge function="internal" id=":1328156530_10">
      <lane id=":1328156530_10_0" index="0" length="5.05" shape="607.79,652.31 609.74,653.39 611.50,655.60" speed="4.17"/>
   </edge>
   <edge function="internal" id=":1328156530_11">
      <lane id=":1328156530_11_0" index="0" length="2.41" shape="605.00,653.88 605.05,654.80 604.40,656.14" speed="2.78"/>
   </edge>
   <edge function="internal" id=":1328156532_0">
      <lane disallow="tram rail_urban rail rail_electric ship" id=":1328156532_0_0" index="0" length="4.82" shape="745.00,776.59 745.69,777.91 745.65,778.83 744.90,779.36 743.41,779.49" speed="8.33"/>
   </edge>
   <edge function="internal" id=":1328156536_0">
      <lane disallow="tram rail_urban rail rail_electric ship" id=":1328156536_0_0" index="0" length="7.90" shape="581.20,786.22 579.19,787.03 577.41,787.00 575.85,786.14 574.50,784.44" speed="5.56"/>
   </edge>
   <edge function="internal" id=":1328156536_1">
      <lane disallow="tram rail_urban rail rail_electric ship" id=":1328156536_1_0" index="0" length="4.82" shape="581.20,786.22 579.72,786.13 578.95,785.62 578.89,784.70 579.54,783.36" speed="8.33"/>
   </edge>
   <edge function="internal" id=":1328156536_2">
      <lane disallow="tram rail_urban rail rail_electric ship" id=":1328156536_2_0" index="0" length="2.58" shape="577.36,782.78 577.80,783.34 578.31,783.62 578.89,783.63 579.54,783.36" speed="5.56"/>
   </edge>
   <edge function="internal" id=":1328156536_3">
      <lane disallow="tram rail_urban rail rail_electric ship" id=":1328156536_3_0" index="0" length="4.82" shape="577.36,782.78 577.27,784.27 576.76,785.04 575.84,785.10 574.50,784.44" speed="2.78"/>
   </edge>
   <edge function="internal" id=":1328156579_0">
      <lane disallow="tram rail_urban rail rail_electric ship" id=":1328156579_0_0" index="0" length="5.03" shape="573.34,677.78 572.48,676.69 571.49,676.13 570.35,676.09 569.08,676.59" speed="4.17"/>
   </edge>
   <edge function="internal" id=":1328156579_1">
      <lane disallow="tram rail_urban rail rail_electric ship" id=":1328156579_1_0" index="0" length="10.33" shape="573.34,677.78 572.27,675.15 572.30,672.82 573.43,670.77 575.65,669.02" speed="4.17"/>
   </edge>
   <edge function="internal" id=":1328156579_2">
      <lane allow="delivery bicycle pedestrian" id=":1328156579_2_0" index="0" length="4.82" shape="573.34,677.78 573.43,676.29 573.93,675.52 574.85,675.46 576.19,676.11" speed="5.56"/>
   </edge>
   <edge function="internal" id=":1328156579_3">
      <lane allow="delivery bicycle pedestrian" id=":1328156579_3_0" index="0" length="5.00" shape="577.31,671.87 576.23,672.72 575.69,673.71 575.67,674.84 576.19,676.11" speed="4.17"/>
   </edge>
   <edge function="internal" id=":1328156579_4">
      <lane disallow="tram rail_urban rail rail_electric ship" id=":1328156579_4_0" index="0" length="9.48" shape="577.31,671.87 569.08,676.59" speed="2.78"/>
   </edge>
   <edge function="internal" id=":1328156579_5">
      <lane disallow="tram rail_urban rail rail_electric ship" id=":1328156579_5_0" index="0" length="2.41" shape="577.31,671.87 575.82,671.78 575.05,671.27" speed="2.78"/>
   </edge>
   <edge function="internal" id=":1328156579_9">
      <lane id=":1328156579_9_0" index="0" length="2.41" shape="575.05,671.27 574.99,670.35 575.65,669.02" speed="2.78"/>
   </edge>
   <edge function="internal" id=":1328156579_6">
      <lane disallow="tram rail_urban rail rail_electric ship" id=":1328156579_6_0" index="0" length="9.44" shape="567.46,673.72 575.65,669.02" speed="2.78"/>
   </edge>
   <edge function="internal" id=":1328156579_7">
      <lane allow="delivery bicycle pedestrian" id=":1328156579_7_0" index="0" length="5.13" shape="567.46,673.72 570.07,672.70 572.40,672.76" speed="4.17"/>
   </edge>
   <edge function="internal" id=":1328156579_8">
      <lane disallow="tram rail_urban rail rail_electric ship" id=":1328156579_8_0" index="0" length="2.41" shape="567.46,673.72 568.94,673.82 569.71,674.34" speed="2.78"/>
   </edge>
   <edge function="internal" id=":1328156579_10">
      <lane id=":1328156579_10_0" index="0" length="5.16" shape="572.40,672.76 574.44,673.89 576.19,676.11" speed="4.17"/>
   </edge>
   <edge function="internal" id=":1328156579_11">
      <lane id=":1328156579_11_0" index="0" length="2.41" shape="569.71,674.34 569.75,675.26 569.08,676.59" speed="2.78"/>
   </edge>
   <edge function="internal" id=":1328156675_0">
      <lane disallow="tram rail_urban rail rail_electric ship" id=":1328156675_0_0" index="0" length="4.99" shape="444.80,724.53 443.97,723.44 442.99,722.87 441.86,722.82 440.58,723.28" speed="11.11"/>
   </edge>
   <edge function="internal" id=":1328156675_1">
      <lane disallow="tram rail_urban rail rail_electric ship" id=":1328156675_1_0" index="0" length="12.99" shape="444.80,724.53 443.08,720.66 442.62,717.44 443.43,714.88 445.51,712.98" speed="11.11"/>
   </edge>
   <edge function="internal" id=":1328156675_2">
      <lane disallow="tram rail_urban rail rail_electric ship" id=":1328156675_2_0" index="0" length="4.82" shape="444.80,724.53 444.91,723.04 445.43,722.28 446.35,722.24 447.68,722.91" speed="8.33"/>
   </edge>
   <edge function="internal" id=":1328156675_3">
      <lane disallow="tram rail_urban rail rail_electric ship" id=":1328156675_3_0" index="0" length="4.98" shape="448.83,718.68 447.76,719.53 447.21,720.51 447.18,721.64 447.68,722.91" speed="11.11"/>
   </edge>
   <edge function="internal" id=":1328156675_4">
      <lane disallow="tram rail_urban rail rail_electric ship" id=":1328156675_4_0" index="0" length="9.38" shape="448.83,718.68 440.58,723.28" speed="13.89"/>
      <lane disallow="tram rail_urban rail rail_electric ship" id=":1328156675_4_1" index="1" length="9.38" shape="447.17,715.83 439.03,720.37" speed="13.89"/>
   </edge>
   <edge function="internal" id=":1328156675_6">
      <lane disallow="tram rail_urban rail rail_electric ship" id=":1328156675_6_0" index="0" length="2.41" shape="447.17,715.83 445.69,715.74 444.91,715.23" speed="13.89"/>
   </edge>
   <edge function="internal" id=":1328156675_11">
      <lane id=":1328156675_11_0" index="0" length="2.41" shape="444.91,715.23 444.86,714.31 445.51,712.98" speed="13.89"/>
   </edge>
   <edge function="internal" id=":1328156675_7">
      <lane disallow="tram rail_urban rail rail_electric ship" id=":1328156675_7_0" index="0" length="9.15" shape="435.91,714.55 443.85,710.12" speed="13.89"/>
      <lane disallow="tram rail_urban rail rail_electric ship" id=":1328156675_7_1" index="1" length="9.15" shape="437.47,717.46 445.51,712.98" speed="13.89"/>
   </edge>
   <edge function="internal" id=":1328156675_9">
      <lane disallow="tram rail_urban rail rail_electric ship" id=":1328156675_9_0" index="0" length="4.33" shape="437.47,717.46 440.17,716.70 441.65,717.08" speed="11.11"/>
   </edge>
   <edge function="internal" id=":1328156675_10">
      <lane disallow="tram rail_urban rail rail_electric ship" id=":1328156675_10_0" index="0" length="2.41" shape="437.47,717.46 438.95,717.61 439.70,718.14" speed="13.89"/>
   </edge>
   <edge function="internal" id=":1328156675_12">
      <lane id=":1328156675_12_0" index="0" length="8.63" shape="441.65,717.08 442.77,717.36 445.27,719.43 447.68,722.91" speed="11.11"/>
   </edge>
   <edge function="internal" id=":1328156675_13">
      <lane id=":1328156675_13_0" index="0" length="2.41" shape="439.70,718.14 439.73,719.06 439.03,720.37" speed="13.89"/>
   </edge>
   <edge function="internal" id=":1328156697_0">
      <lane allow="delivery bicycle pedestrian" id=":1328156697_0_0" index="0" length="4.82" shape="673.42,679.76 673.33,681.25 672.82,682.02 671.90,682.08 670.57,681.43" speed="5.56"/>
   </edge>
   <edge function="internal" id=":1443568783_0">
      <lane allow="delivery bicycle pedestrian" id=":1443568783_0_0" index="0" length="4.82" shape="20.41,685.77 21.84,685.37 22.74,685.59 23.10,686.44 22.92,687.92" speed="5.56"/>
   </edge>
   <edge function="internal" id=":1443568805_0">
      <lane allow="delivery bicycle pedestrian" id=":1443568805_0_0" index="0" length="0.10" shape="18.13,693.50 18.13,693.51" speed="5.56"/>
   </edge>
   <edge function="internal" id=":1443568805_1">
      <lane allow="delivery bicycle pedestrian" id=":1443568805_1_0" index="0" length="2.41" shape="18.13,693.50 16.70,693.91 15.81,693.69" speed="5.56"/>
   </edge>
   <edge function="internal" id=":1443568805_4">
      <lane id=":1443568805_4_0" index="0" length="2.41" shape="15.81,693.69 15.45,692.84 15.63,691.36" speed="5.56"/>
   </edge>
   <edge function="internal" id=":1443568805_2">
      <lane allow="delivery bicycle pedestrian" id=":1443568805_2_0" index="0" length="0.10" shape="15.63,691.36 15.63,691.36" speed="5.56"/>
   </edge>
   <edge function="internal" id=":1443568805_3">
      <lane allow="delivery bicycle pedestrian" id=":1443568805_3_0" index="0" length="2.41" shape="15.63,691.36 17.06,690.96 17.96,691.18" speed="5.56"/>
   </edge>
   <edge function="internal" id=":1443568805_5">
      <lane id=":1443568805_5_0" index="0" length="2.41" shape="17.96,691.18 18.31,692.03 18.13,693.51" speed="5.56"/>
   </edge>
   <edge function="internal" id=":1443568827_0">
      <lane allow="delivery bicycle pedestrian" id=":1443568827_0_0" index="0" length="0.76" shape="14.25,697.98 13.72,698.52" speed="5.56"/>
   </edge>
   <edge function="internal" id=":1443568827_1">
      <lane allow="delivery bicycle pedestrian" id=":1443568827_1_0" index="0" length="2.78" shape="14.25,697.98 12.81,698.36 11.92,698.13 11.78,697.79" speed="5.56"/>
   </edge>
   <edge function="internal" id=":1443568827_4">
      <lane id=":1443568827_4_0" index="0" length="2.04" shape="11.78,697.79 11.58,697.27 11.77,695.80" speed="5.56"/>
   </edge>
   <edge function="internal" id=":1443568827_2">