<?xml version="1.0" encoding="utf-8"?><!-- generated on 10/11/17 17:54:38 by SUMO polyconvert Version 0.25.0
<?xml version="1.0" encoding="UTF-8"?>

<configuration xmlns:xsi="http://www.w3.org/2001/XMLSchema-instance" xsi:noNamespaceSchemaLocation="http://sumo.dlr.de/xsd/polyconvertConfiguration.xsd">

    <input>
        <net-file value="IN_GVZ_industrial_800.net.xml"/>
        <osm-files value="IN_GVZ_industrial_800.osm"/>
        <type-file value="osmPolyconvert.typ.xml"/>
    </input>

    <output>
        <output-file value="IN_GVZ_industrial_800.poly.xml"/>
    </output>

    <projection>
        <proj.utm value="true"/>
    </projection>

    <processing>
        <poi-layer-offset value="5"/>
    </processing>

</configuration>
-->
<additional>
   <location convBoundary="-0.00,-7.34,806.94,801.13" netOffset="-675957.20,-5405762.57" origBoundary="11.395448,48.779810,11.406312,48.787002" projParameter="+proj=utm +zone=32 +ellps=WGS84 +datum=WGS84 +units=m +no_defs"/>
   <poly color="184,184,179" fill="0" id="120033057" layer="-1.00" shape="339.38,792.37 354.76,733.25 383.44,712.59 379.44,706.98 394.51,697.17 401.44,692.66 439.96,755.60" type="parking"/>
   <poly color="red" fill="1" id="120033066" layer="-1.00" shape="599.45,696.36 606.82,691.70 559.66,617.50 552.12,622.27 549.37,617.96 421.85,698.96 475.98,783.67 603.49,702.68 599.45,696.36" type="building"/>
   <poly color="red" fill="1" id="120033073" layer="-1.00" shape="250.14,658.53 194.33,635.73 182.51,664.53 238.31,687.32 250.14,658.53" type="building"/>
   <poly color="red" fill="1" id="120033078" layer="-1.00" shape="556.95,234.85 427.20,319.97 432.74,328.36 427.83,331.63 462.16,382.75 455.60,386.93 481.53,427.28 488.91,422.58 492.06,427.27 492.93,426.69 504.02,443.14 635.89,354.78 624.95,338.55 630.31,334.98 626.92,329.95 633.50,325.55 579.86,245.99 573.43,250.29 566.07,239.34 561.80,242.20 556.95,234.85" type="building"/>
   <poly color="184,184,179" fill="0" id="120033089" layer="-1.00" shape="195.58,771.24 200.90,767.42 217.62,768.09 265.20,785.01 271.51,786.75 273.53,784.23 274.78,778.82 267.10,751.66 264.62,746.70 237.54,739.97 252.75,705.64 269.30,709.12 273.18,740.07 274.67,746.37 278.91,764.24 286.58,786.54" type="parking"/>
   <poly color="red" fill="1" id="120033093" layer="-1.00" shape="262.68,643.64 287.69,583.29 225.56,557.67 200.55,618.04 262.68,643.64" type="building"/>
   <poly color="207,245,201" fill="1" id="120033093#1" layer="-2.00" shape="262.68,643.64 287.69,583.29 225.56,557.67 200.55,618.04 262.68,643.64" type="tourism"/>
   <poly color="237,199,199" fill="0" id="120033094" layer="-1.00" shape="149.77,768.34 151.10,764.34 164.56,768.81 162.57,774.76 170.01,777.23 171.88,771.63 187.00,776.66" type="amenity"/>
   <poly color="red" fill="0" id="120033094#1" layer="-1.00" shape="149.77,768.34 151.10,764.34 164.56,768.81 162.57,774.76 170.01,777.23 171.88,771.63 187.00,776.66" type="building"/>
   <poly color="237,199,255" fill="0" id="120033094#2" layer="-1.00" shape="149.77,768.34 151.10,764.34 164.56,768.81 162.57,774.76 170.01,777.23 171.88,771.63 187.00,776.66" type="shop"/>
   <poly color="red" fill="1" id="120033101" layer="-1.00" shape="508.44,496.91 499.01,503.15 488.69,487.88 359.79,574.51 356.57,592.72 400.51,657.71 540.10,563.91 534.15,555.12 543.18,549.15 508.44,496.91" type="building"/>
   <poly color="red" fill="1" id="120033106" layer="-1.00" shape="445.16,433.99 453.06,427.44 408.96,374.53 400.96,381.15 392.06,370.50 272.21,470.16 262.30,477.97 321.34,547.32 327.27,542.39 338.10,555.25 455.28,457.16 444.77,444.68 450.28,440.10 445.16,433.99" type="building"/>
   <poly color="red" fill="1" id="120033107" layer="-1.00" shape="700.82,440.33 710.58,433.89 673.94,378.68 663.93,385.29 657.54,375.76 653.23,378.64 643.40,364.06 510.03,453.42 519.64,467.67 519.32,467.88 530.53,484.60 525.38,487.97 553.35,530.50 558.88,526.89 569.65,542.95 574.70,539.58 580.43,547.96 641.86,506.16 638.06,500.59 643.24,497.17 648.63,505.32 715.41,461.38 707.02,448.71 706.62,448.98 700.82,440.33" type="building"/>
   <poly color="red" fill="1" id="120033108" layer="-1.00" shape="625.75,678.24 630.19,684.00 659.04,661.88 656.00,657.92 600.69,586.21 571.84,608.33 625.75,678.24" type="building"/>
   <poly color="237,199,199" fill="1" id="120396749" layer="-1.00" shape="177.33,760.53 181.01,753.03 170.62,747.96 166.95,755.46 177.33,760.53" type="amenity"/>
   <poly color="red" fill="1" id="120396749#1" layer="-1.00" shape="177.33,760.53 181.01,753.03 170.62,747.96 166.95,755.46 177.33,760.53" type="building"/>
   <poly color="237,199,255" fill="1" id="120396749#2" layer="-1.00" shape="177.33,760.53 181.01,753.03 170.62,747.96 166.95,755.46 177.33,760.53" type="shop"/>
   <poly color="209,209,204" fill="0" id="120396752" layer="-3.00" shape="606.13,788.21 650.18,743.64 748.66,657.76 469.08,48.00 269.93,187.27 193.42,92.76" type="industrial"/>
   <poly color="red" fill="1" id="120396753" layer="-1.00" shape="398.05,134.52 462.35,229.07 397.53,273.29 385.86,281.11 320.78,185.89 398.05,134.52" type="building"/>
   <poly color="red" fill="1" id="120396754" layer="-1.00" shape="354.08,639.77 360.84,635.40 365.28,632.54 348.56,606.84 337.37,614.08 354.08,639.77" type="building"/>
   <poly color="184,184,179" fill="0" id="120416774" layer="-1.00" shape="660.72,735.15 650.51,743.99 606.45,788.86" type="parking"/>
   <poly color="184,184,179" fill="1" id="129323703" layer="-1.00" shape="660.72,735.15 749.52,658.33 660.72,735.15" type="parking"/>
   <poly color="207,245,201" fill="1" id="129379977" layer="-2.00" shape="575.21,46.95 583.34,52.47 572.69,68.07 564.56,62.55 575.21,46.95" type="leisure"/>
   <poly color="79,230,125" fill="1" id="129379977#1" layer="-2.00" shape="575.21,46.95 583.34,52.47 572.69,68.07 564.56,62.55 575.21,46.95" type="sport"/>
   <poly color="184,184,179" fill="1" id="129379986" layer="-1.00" shape="764.97,120.55 763.30,159.08 794.18,160.41 795.20,137.02 764.97,120.55" type="parking"/>
   <poly color="red" fill="1" id="129379992" layer="-1.00" shape="752.74,196.76 769.13,197.15 772.50,197.23 772.96,177.57 753.19,177.12 752.74,196.76" type="building"/>
   <poly color="184,184,179" fill="1" id="129379993" layer="-1.00" shape="704.34,80.41 703.57,109.28 679.70,108.17 653.00,93.02 653.20,47.87 704.34,80.41" type="parking"/>
   <poly color="red" fill="0" id="129379994" layer="-1.00" shape="793.48,167.26 793.34,172.93 792.25,172.91 792.10,179.28" type="building"/>
   <poly color="red" fill="1" id="129379997" layer="-1.00" shape="759.24,172.15 792.25,172.91 793.34,172.93 793.48,167.26 793.61,161.34 759.51,160.55 759.24,172.15" type="building"/>
   <poly color="red" fill="1" id="129379998" layer="-1.00" shape="791.52,203.85 792.10,179.28 792.25,172.91 773.08,172.46 772.50,197.23 769.13,197.15 768.99,203.33 791.52,203.85" type="building"/>
   <poly color="red" fill="1" id="129379999" layer="-1.00" shape="723.72,139.45 722.86,176.41 753.19,177.12 772.96,177.57 773.08,172.46 759.24,172.15 759.98,140.29 723.72,139.45" type="building"/>
   <poly color="red" fill="0" id="137427219" layer="-1.00" shape="140.73,99.11 61.48,286.61" type="building"/>
   <poly color="207,245,201" fill="1" id="137427284" layer="-2.00" shape="235.71,138.95 198.65,95.98 215.87,60.43 230.42,13.29 368.30,7.78 397.68,47.99 293.67,129.06 259.17,151.55 235.71,138.95" type="tourism"/>
   <poly color="207,245,201" fill="1" id="137427295" layer="-2.00" shape="258.55,17.68 231.21,16.34 229.17,58.21 256.50,59.55 258.55,17.68" type="leisure"/>
   <poly color="79,230,125" fill="1" id="137427295#1" layer="-2.00" shape="258.55,17.68 231.21,16.34 229.17,58.21 256.50,59.55 258.55,17.68" type="sport"/>
   <poly color="207,245,201" fill="1" id="137427307" layer="-2.00" shape="272.26,75.54 246.29,74.36 244.34,117.40 270.31,118.57 272.26,75.54" type="leisure"/>
   <poly color="79,230,125" fill="1" id="137427307#1" layer="-2.00" shape="272.26,75.54 246.29,74.36 244.34,117.40 270.31,118.57 272.26,75.54" type="sport"/>
   <poly color="red" fill="1" id="137427308" layer="-1.00" shape="316.75,46.52 319.71,51.48 324.62,48.55 321.65,43.59 316.75,46.52" type="building"/>
   <poly color="207,245,201" fill="0" id="137427315" layer="-2.00" shape="286.64,-6.46 276.05,-2.52 266.52,-7.34" type="leisure"/>
   <poly color="79,230,125" fill="0" id="137427315#1" layer="-2.00" shape="286.64,-6.46 276.05,-2.52 266.52,-7.34" type="sport"/>
   <poly color="237,199,199" fill="1" id="173201765" layer="-1.00" shape="149.77,768.34 137.92,764.39 133.52,762.93 126.17,785.05 130.18,786.52 149.77,768.34" type="amenity"/>
   <poly color="red" fill="1" id="173201765#1" layer="-1.00" shape="149.77,768.34 137.92,764.39 133.52,762.93 126.17,785.05 130.18,786.52 149.77,768.34" type="building"/>
   <poly color="237,199,255" fill="1" id="173201765#2" layer="-1.00" shape="149.77,768.34 137.92,764.39 133.52,762.93 126.17,785.05 130.18,786.52 149.77,768.34" type="shop"/>
   <poly color="red" fill="1" id="173205184" layer="-1.00" shape="782.15,73.88 803.93,74.20 804.45,39.81 782.68,39.48 782.15,73.88" type="building"/>
   <poly color="184,184,179" fill="1" id="195966651" layer="-1.00" shape="258.57,447.35 275.82,433.26 272.92,429.39 285.67,418.33 288.87,422.50 292.02,419.89 294.32,418.00 290.82,413.80 301.19,406.29 304.42,409.70 314.04,402.32 311.46,397.71 324.66,387.10 327.88,390.37 330.94,387.83 344.83,376.27 347.27,379.17 350.82,383.40 341.13,392.90 338.18,390.24 334.91,392.47 331.84,394.57 334.73,398.89 321.22,409.79 318.59,406.68 308.52,414.06 311.74,417.63 302.26,425.49 298.87,422.37 295.65,424.61 293.30,426.26 297.25,430.62 265.87,455.90 258.57,447.35" type="parking"/>
   <poly color="184,184,179" fill="1" id="195966652" layer="-1.00" shape="349.92,329.33 339.15,337.06 341.24,339.95 352.00,332.22 349.92,329.33" type="parking"/>
   <poly color="184,184,179" fill="1" id="195966654" layer="-1.00" shape="272.21,470.16 392.06,370.50 387.44,364.32 266.66,463.89 272.21,470.16" type="parking"/>
   <poly color="184,184,179" fill="1" id="195967314" layer="-1.00" shape="348.13,345.28 350.50,348.56 375.57,330.57 373.21,327.29 348.13,345.28" type="parking"/>
   <poly color="184,184,179" fill="1" id="195967317" layer="-1.00" shape="239.99,407.42 242.70,411.19 280.10,384.34 277.38,380.57 239.99,407.42" type="parking"/>
   <poly color="184,184,179" fill="1" id="195967320" layer="-1.00" shape="465.46,264.03 468.79,268.89 515.41,237.05 512.06,232.20 465.46,264.03" type="parking"/>
   <poly color="184,184,179" fill="1" id="195967322" layer="-1.00" shape="453.19,272.61 419.32,294.38 422.11,298.70 455.98,276.92 453.19,272.61" type="parking"/>
   <poly color="184,184,179" fill="1" id="195967324" layer="-1.00" shape="375.30,325.65 378.11,329.53 384.31,325.08 381.50,321.19 375.30,325.65" type="parking"/>
   <poly color="184,184,179" fill="1" id="195967326" layer="-1.00" shape="678.05,364.87 728.24,434.38 740.56,425.54 690.37,356.03 678.05,364.87" type="parking"/>
   <poly color="184,184,179" fill="1" id="195967328" layer="-1.00" shape="374.04,311.52 360.92,320.93 363.76,324.86 376.87,315.45 374.04,311.52" type="parking"/>
   <poly color="red" fill="1" id="195977237" layer="-1.00" shape="755.99,453.02 748.02,458.71 755.99,453.02" type="building"/>
   <poly color="red" fill="1" id="195977238" layer="-1.00" shape="406.91,287.19 510.33,218.11 500.34,204.09 397.53,273.29 406.91,287.19" type="building"/>
   <poly color="237,199,199" fill="1" id="195977240" layer="-1.00" shape="159.44,295.71 164.77,291.55 161.61,287.03 155.85,291.09 159.44,295.71" type="amenity"/>
   <poly color="237,199,199" fill="1" id="195977241" layer="-1.00" shape="436.73,87.82 439.56,91.58 443.87,88.35 441.05,84.60 436.73,87.82" type="amenity"/>
   <poly color="237,199,199" fill="1" id="195977242" layer="-1.00" shape="334.60,156.99 337.10,160.76 342.27,157.34 339.77,153.58 334.60,156.99" type="amenity"/>
   <poly color="184,184,179" fill="1" id="195977244" layer="-1.00" shape="582.54,230.24 648.67,322.45 659.96,314.40 593.82,222.19 582.54,230.24" type="parking"/>
   <poly color="237,199,199" fill="1" id="195977245" layer="-1.00" shape="267.74,204.13 271.37,209.29 277.49,204.45 273.96,199.77 267.74,204.13" type="amenity"/>
   <poly color="237,199,199" fill="1" id="195977246" layer="-1.00" shape="390.63,118.33 393.09,121.94 397.84,118.73 395.38,115.12 390.63,118.33" type="amenity"/>
   <poly color="red" fill="1" id="196021033" layer="-1.00" shape="606.74,581.57 662.03,653.30 665.17,657.37 670.64,653.18 785.92,564.82 790.40,561.39 731.96,485.59 606.74,581.57" type="building"/>
   <poly color="red" fill="1" id="196021034" layer="-1.00" shape="656.00,657.92 662.03,653.30 606.74,581.57 600.69,586.21 656.00,657.92" type="building"/>
   <poly color="red" fill="1" id="196021035" layer="-1.00" shape="670.64,653.18 677.04,661.47 792.32,573.11 785.92,564.82 670.64,653.18" type="building"/>
   <poly color="red" fill="1" id="196021036" layer="-1.00" shape="571.84,608.33 565.64,613.07 619.55,682.99 625.75,678.24 571.84,608.33" type="building"/>
   <poly color="red" fill="1" id="196021037" layer="-1.00" shape="600.69,586.21 606.74,581.57 731.96,485.59 721.83,472.47 561.72,595.19 571.84,608.33 600.69,586.21" type="building"/>
   <poly color="red" fill="0" id="202588110" layer="-1.00" shape="781.07,509.66 773.64,514.96" type="building"/>
   <poly color="red" fill="1" id="206392757" layer="-1.00" shape="694.01,5.33 672.93,15.97 680.94,22.16 694.01,5.33" type="building"/>
   <poly color="red" fill="1" id="206392762" layer="-1.00" shape="669.95,5.47" type="building"/>
   <poly color="red" fill="1" id="206392763" layer="-1.00" shape="690.28,24.90 694.43,28.10 706.15,12.99 702.00,9.79 690.28,24.90" type="building"/>
   <poly color="red" fill="1" id="216737492" layer="-1.00" shape="708.50,42.02 717.10,48.92 725.31,38.75 716.71,31.85 708.50,42.02" type="building"/>
   <poly color="184,184,179" fill="1" id="225485905" layer="-1.00" shape="68.98,314.16 148.86,125.84 140.28,122.10 62.15,311.69 68.98,314.16" type="parking"/>
   <poly color="red" fill="1" id="26028283" layer="-1.00" shape="150.62,314.57 221.82,405.39 363.58,293.81 293.22,204.56 282.97,212.88 240.59,243.67 202.68,274.41 161.72,305.74 150.62,314.57" type="building"/>
   <poly color="184,184,179" fill="1" id="26028284" layer="-1.00" shape="102.96,316.86 106.53,320.35 158.69,283.04 161.61,287.03 164.77,291.55 271.37,209.29 267.74,204.13 189.78,263.65 183.16,255.36 102.96,316.86" type="parking"/>
   <poly color="184,184,179" fill="1" id="26028286" layer="-1.00" shape="229.55,543.16 293.23,569.70 297.14,571.33 306.94,548.39 308.51,544.71 253.94,484.73 229.55,543.16" type="parking"/>
   <poly color="red" fill="0" id="26028287" layer="-1.00" shape="373.75,7.60 375.35,9.94" type="building"/>
   <poly color="237,199,255" fill="0" id="26028287#1" layer="-1.00" shape="373.75,7.60 375.35,9.94" type="shop"/>
   <poly color="194,194,130" fill="1" id="270562479" layer="-3.00" shape="549.06,120.83 475.58,23.11 472.45,9.42 476.30,-1.18 630.69,13.59 549.06,120.83" type="landuse"/>
   <poly color="140,196,107" fill="1" id="270562479#1" layer="-4.00" shape="549.06,120.83 475.58,23.11 472.45,9.42 476.30,-1.18 630.69,13.59 549.06,120.83" type="natural"/>
   <poly color="red" fill="1" id="28252651" layer="-1.00" shape="60.99,758.52 116.63,625.69 101.89,619.55 106.33,608.97 96.23,604.75 100.12,595.50 15.50,560.15 28.78,768.17 32.53,759.25 41.60,763.04 46.11,752.32 60.99,758.52" type="building"/>
   <poly color="red" fill="1" id="28319379" layer="-1.00" shape="398.05,134.52 462.35,229.07 500.34,204.09 537.46,180.47 473.06,84.40 398.05,134.52" type="building"/>
   <poly color="194,194,130" fill="0" id="28319415" layer="-3.00" shape="704.06,335.41 549.06,120.83 630.69,13.59" type="landuse"/>
   <poly color="red" fill="1" id="286646177" layer="-1.00" shape="144.17,82.92" type="building"/>
   <poly color="184,184,179" fill="1" id="286646194" layer="-1.00" shape="136.73,95.93 139.39,88.97 136.73,95.93" type="parking"/>
   <poly color="184,184,179" fill="1" id="286646195" layer="-1.00" shape="171.84,68.58 162.37,64.69 171.84,68.58" type="parking"/>
   <poly color="red" fill="1" id="310194188" layer="-1.00" shape="231.08,708.74 175.28,685.94 163.45,714.74 219.25,737.54 231.08,708.74" type="building"/>
   <poly color="237,199,199" fill="0" id="319236961" layer="-1.00" shape="199.45,753.53 137.16,730.56" type="amenity"/>
   <poly color="237,199,255" fill="0" id="319236961#1" layer="-1.00" shape="199.45,753.53 137.16,730.56" type="shop"/>
   <poly color="140,196,107" fill="0" id="32815408" layer="-4.00" shape="283.66,757.82 291.73,754.93 304.16,790.88" type="forest"/>
   <poly color="184,184,179" fill="1" id="328958242" layer="-1.00" shape="153.34,590.03 230.56,437.57 224.77,434.65 149.11,587.67 153.34,590.03" type="parking"/>
   <poly color="184,184,179" fill="1" id="333213156" layer="-1.00" shape="165.48,117.52 121.63,216.45 192.26,245.23 200.67,228.78 212.20,204.80 237.05,150.67 165.48,117.52" type="parking"/>
   <poly color="140,196,107" fill="1" id="333214284" layer="-4.00" shape="348.56,606.84 337.48,590.93 325.85,606.76 313.05,631.10 304.60,655.89 299.48,684.68 298.82,714.95 301.85,738.00 397.61,678.47 374.06,642.78 370.81,645.53 365.78,638.02 363.62,639.75 360.84,635.40 354.08,639.77 337.37,614.08 348.56,606.84" type="forest"/>
   <poly color="140,196,107" fill="1" id="333214286" layer="-4.00" shape="306.94,548.39 312.56,556.52 316.82,559.95 328.89,558.83 314.68,579.99 303.58,602.73 296.47,628.01 287.01,684.56 287.55,719.83 290.91,742.44 274.67,746.37 269.30,709.12 272.66,695.82 269.93,687.03 276.10,668.02 269.22,666.75 263.76,663.28 264.78,659.71 273.37,659.24 309.55,571.12 304.21,568.41 300.19,576.53 292.17,573.28 293.23,569.70 297.14,571.33 306.94,548.39" type="forest"/>
   <poly color="184,184,179" fill="1" id="333214290" layer="-1.00" shape="115.44,366.92 153.86,385.99 156.20,381.31 117.78,362.25 115.44,366.92" type="parking"/>
   <poly color="184,184,179" fill="1" id="333214291" layer="-1.00" shape="197.98,597.60 193.32,595.70 188.27,608.00 192.93,609.91 197.98,597.60" type="parking"/>
   <poly color="184,184,179" fill="1" id="333214292" layer="-1.00" shape="199.45,629.79 197.50,634.60 212.52,640.64 214.47,635.84 199.45,629.79" type="parking"/>
   <poly color="184,184,179" fill="1" id="333214294" layer="-1.00" shape="152.90,334.58 174.21,362.47 178.48,359.22 157.17,331.33 152.90,334.58" type="parking"/>
   <poly color="184,184,179" fill="1" id="333214296" layer="-1.00" shape="219.22,638.65 217.16,643.76 230.97,649.31 233.04,644.21 219.22,638.65" type="parking"/>
   <poly color="184,184,179" fill="1" id="333214298" layer="-1.00" shape="196.77,616.28 200.30,617.71 205.01,606.25 201.48,604.80 196.77,616.28" type="parking"/>
   <poly color="184,184,179" fill="1" id="333214301" layer="-1.00" shape="147.11,343.99 143.74,348.11 170.53,369.90 173.91,365.78 147.11,343.99" type="parking"/>
   <poly color="184,184,179" fill="1" id="333214303" layer="-1.00" shape="243.98,648.40 241.89,653.56 250.78,657.14 252.87,651.98 243.98,648.40" type="parking"/>
   <poly color="184,184,179" fill="1" id="333214305" layer="-1.00" shape="212.90,577.49 216.63,579.01 226.77,554.33 223.04,552.80 212.90,577.49" type="parking"/>
   <poly color="184,184,179" fill="1" id="333214307" layer="-1.00" shape="111.20,697.44 140.79,624.31 137.14,622.83 107.55,695.97 111.20,697.44" type="parking"/>
   <poly color="184,184,179" fill="1" id="333214309" layer="-1.00" shape="201.41,623.82 214.25,629.00 215.97,624.73 203.13,619.56 201.41,623.82" type="parking"/>
   <poly color="184,184,179" fill="1" id="333214310" layer="-1.00" shape="213.87,559.95 209.01,557.96 203.84,570.55 208.70,572.53 213.87,559.95" type="parking"/>
   <poly color="184,184,179" fill="1" id="333214311" layer="-1.00" shape="161.10,672.25 166.14,674.28 183.63,631.06 178.58,629.03 161.10,672.25" type="parking"/>
   <poly color="184,184,179" fill="1" id="333214312" layer="-1.00" shape="249.12,644.44 258.45,648.20 260.35,643.47 251.03,639.72 249.12,644.44" type="parking"/>
   <poly color="184,184,179" fill="1" id="333214313" layer="-1.00" shape="206.33,577.69 201.72,575.81 198.53,583.58 203.14,585.46 206.33,577.69" type="parking"/>
   <poly color="184,184,179" fill="1" id="333214314" layer="-1.00" shape="179.41,657.39 183.75,659.14 193.85,634.18 189.50,632.43 179.41,657.39" type="parking"/>
   <poly color="140,196,107" fill="1" id="333214315" layer="-4.00" shape="306.57,750.27 316.63,781.97 504.61,788.01 588.86,747.19 641.69,698.16 637.99,694.01 507.50,783.86 502.72,780.32 478.82,795.90 441.34,736.38 433.27,729.34 408.27,692.27 408.83,687.84 503.11,626.33 499.83,622.40 402.76,684.89 401.44,692.66 439.96,755.60 339.38,792.37 354.76,733.25 383.44,712.59 379.44,706.98 394.51,697.17 389.87,695.73 335.27,733.46 319.21,743.77 306.57,750.27" type="forest"/>
   <poly color="194,194,130" fill="1" id="333214316" layer="-3.00" shape="143.74,348.11 142.22,346.28 141.40,344.30 141.89,341.28 151.45,327.68 153.52,327.36 157.17,331.33 152.90,334.58 174.21,362.47 178.48,359.22 179.58,358.86 180.95,360.38 172.34,371.95 170.53,369.90 173.91,365.78 147.11,343.99 143.74,348.11" type="landuse"/>
   <poly color="194,194,130" fill="0" id="333214317" layer="-3.00" shape="95.92,775.90 89.50,761.04 88.77,757.79 101.13,726.16 105.07,723.58 113.50,720.83 114.40,718.68 104.58,715.98 101.14,715.87 95.24,721.40 81.86,755.39 84.74,766.50 89.31,773.61 91.25,778.35" type="landuse"/>
   <poly color="194,194,130" fill="1" id="333214318" layer="-3.00" shape="4.66,773.33 59.67,784.73 9.05,763.18 4.66,773.33" type="landuse"/>
   <poly color="194,194,130" fill="0" id="333214319" layer="-3.00" shape="1.78,772.21 6.57,762.48" type="landuse"/>
   <poly color="194,194,130" fill="1" id="333214321" layer="-3.00" shape="192.26,245.23 193.40,247.26 188.46,251.14 183.16,255.36 92.99,324.19 75.82,318.47 121.63,216.45 192.26,245.23" type="landuse"/>
   <poly color="194,194,130" fill="1" id="333214323" layer="-3.00" shape="174.60,373.80 182.48,362.31 185.46,366.05 185.37,367.84 207.00,396.01 205.86,397.15 179.26,375.34 176.61,375.47 174.60,373.80" type="landuse"/>
   <poly color="194,194,130" fill="1" id="333214324" layer="-3.00" shape="115.44,366.92 112.67,365.31 111.08,363.05 111.10,360.36 120.41,342.44 203.10,410.32 153.86,385.99 156.20,381.31 117.78,362.25 115.44,366.92" type="landuse"/>
   <poly color="140,196,107" fill="1" id="399835083" layer="-4.00" shape="272.85,161.60 288.90,173.10 467.14,52.03 544.20,161.10 540.24,164.33 563.36,199.04 567.71,200.43 573.44,198.02 576.15,194.34 576.77,190.35 472.93,47.73 460.94,31.25 454.98,28.29 447.00,28.40 444.39,28.76 272.85,161.60" type="natural"/>
   <poly color="194,194,130" fill="1" id="399835086" layer="-3.00" shape="527.65,229.55 524.98,228.93 522.72,226.63 518.48,216.12 517.67,210.46 518.89,205.84 523.73,200.10 532.44,194.20 537.77,193.03 542.46,194.97 547.26,202.19 548.70,207.69 547.16,216.58 527.65,229.55" type="landuse"/>
   <poly color="140,196,107" fill="1" id="400100573" layer="-4.00" shape="318.73,189.70 376.80,273.56 374.17,275.40 368.88,269.57 369.83,266.50 366.04,260.81 362.93,260.83 357.98,254.46 358.64,250.74 345.59,232.36 343.10,233.14 338.05,226.68 338.38,223.05 321.50,200.47 319.12,200.93 315.53,196.01 315.27,193.97 316.08,191.97 316.88,190.28 318.73,189.70" type="natural"/>
   <poly color="184,184,179" fill="1" id="400100574" layer="-1.00" shape="343.10,233.14 357.98,254.46 358.64,250.74 345.59,232.36 343.10,233.14" type="parking"/>
   <poly color="184,184,179" fill="1" id="400100575" layer="-1.00" shape="362.93,260.83 366.04,260.81 369.83,266.50 368.88,269.57 362.93,260.83" type="parking"/>
   <poly color="184,184,179" fill="1" id="400100576" layer="-1.00" shape="319.12,200.93 338.05,226.68 338.38,223.05 321.50,200.47 319.12,200.93" type="parking"/>
   <poly color="184,184,179" fill="1" id="400100577" layer="-1.00" shape="747.37,399.43 764.88,388.43 794.80,466.59 767.61,428.10 747.37,399.43" type="parking"/>
   <poly color="184,184,179" fill="1" id="49887170" layer="-1.00" shape="475.66,68.50 466.16,54.44 307.67,160.93 317.17,174.98 475.66,68.50" type="parking"/>
   <poly color="184,184,179" fill="0" id="54169239" layer="-1.00" shape="375.35,9.94 373.73,11.10 381.59,20.98 402.35,43.26 432.26,11.46 432.73,6.50 430.60,0.51" type="parking"/>
   <poly color="red" fill="1" id="54169362" layer="-1.00" shape="566.40,27.45 591.63,44.54 597.29,36.25 572.06,19.14 566.40,27.45" type="building"/>
   <poly color="red" fill="1" id="54169363" layer="-1.00" shape="572.50,10.50 601.82,29.71 607.68,20.84 578.35,1.62 572.50,10.50" type="building"/>
   <poly color="red" fill="1" id="54169366" layer="-1.00" shape="660.37,7.54" type="building"/>
   <poly color="red" fill="1" id="54169369" layer="-1.00" shape="782.91,15.88" type="building"/>
   <poly color="red" fill="1" id="54169370" layer="-1.00" shape="720.31,32.03 732.67,37.77 720.31,32.03" type="building"/>
   <poly color="red" fill="1" id="59711599" layer="-1.00" shape="208.74,431.02 192.56,422.92 196.65,414.80 104.10,367.23 88.37,398.49 64.01,446.90 33.65,504.72 20.57,533.24 113.58,579.75 118.45,570.07 134.73,578.20 141.31,565.10 144.43,566.57 149.35,556.19 146.47,554.84 168.87,510.30 171.87,511.72 176.79,501.35 174.03,500.05 196.49,455.38 199.32,456.74 204.06,446.96 201.38,445.66 208.74,431.02" type="building"/>
   <poly color="184,184,179" fill="0" id="98323008" layer="-1.00" shape="20.34,525.79 100.21,365.50 53.71,345.32" type="parking"/>
   <poly color="184,184,179" fill="1" id="98323019" layer="-1.00" shape="6.60,556.80" type="parking"/>
   <poi color="128,255,128" id="1280773960" layer="4.00" type="historic" x="471.35" y="9.21"/>
   <poi color="237,199,199" id="1346892532" layer="4.00" type="amenity" x="630.31" y="334.98"/>
   <poi color="237,199,199" id="1377043603" layer="4.00" type="amenity" x="188.63" y="764.57"/>
   <poi color="207,245,201" id="1427494654" layer="3.00" type="leisure" x="546.75" y="72.51"/>
   <poi color="237,199,199" id="1509951397" layer="4.00" type="amenity" x="427.94" y="4.02"/>
   <poi color="237,199,199" id="1916664438" layer="4.00" type="amenity" x="753.58" y="37.96"/>
   <poi color="237,199,199" id="2125534813" layer="4.00" type="amenity" x="574.50" y="558.27"/>
   <poi color="237,199,199" id="2261358964" layer="4.00" type="amenity" x="694.53" y="33.95"/>
   <poi color="237,199,199" id="292572175" layer="4.00" type="amenity" x="684.16" y="74.87"/>
   <poi color="237,199,199" id="3836221943" layer="4.00" type="amenity" x="728.03" y="53.27"/>
   <poi color="128,255,128" id="425599952" layer="4.00" type="historic" x="101.27" y="113.51"/>
</additional>