<?xml version="1.0" encoding="utf-8"?><!-- generated on 10/11/17 17:54:46 by SUMO polyconvert Version 0.25.0
<?xml version="1.0" encoding="UTF-8"?>

<configuration xmlns:xsi="http://www.w3.org/2001/XMLSchema-instance" xsi:noNamespaceSchemaLocation="http://sumo.dlr.de/xsd/polyconvertConfiguration.xsd">

    <input>
        <net-file value="IN_Gerolfing_rural_800.net.xml"/>
        <osm-files value="IN_Gerolfing_rural_800.osm"/>
        <type-file value="osmPolyconvert.typ.xml"/>
    </input>

    <output>
        <output-file value="IN_Gerolfing_rural_800.poly.xml"/>
    </output>

    <projection>
        <proj.utm value="true"/>
    </projection>

    <processing>
        <poi-layer-offset value="5"/>
    </processing>

</configuration>
-->
<additional>
   <location convBoundary="-17.80,-17.64,799.32,797.31" netOffset="-672274.36,-5402574.60" origBoundary="11.343852,48.752159,11.354777,48.759306" projParameter="+proj=utm +zone=32 +ellps=WGS84 +datum=WGS84 +units=m +no_defs"/>
   <poly color="red" fill="1" id="125419135" layer="-1.00" shape="170.50,696.84 181.41,733.30 161.29,739.84 150.55,704.11 170.50,696.84" type="building"/>
   <poly color="237,199,255" fill="1" id="125419135#1" layer="-1.00" shape="170.50,696.84 181.41,733.30 161.29,739.84 150.55,704.11 170.50,696.84" type="shop"/>
   <poly color="red" fill="0" id="125420041" layer="-1.00" shape="3.87,222.68 1.10,210.00" type="building"/>
   <poly color="237,199,255" fill="0" id="125420041#1" layer="-1.00" shape="3.87,222.68 1.10,210.00" type="shop"/>
   <poly color="237,199,199" fill="1" id="161388266" layer="-1.00" shape="153.94,249.83 146.74,250.17 148.81,268.66 119.92,272.36 120.49,281.17 125.18,281.10 125.58,286.71 168.31,282.21 166.44,266.52 156.07,268.03 153.94,249.83" type="amenity"/>
   <poly color="red" fill="1" id="161388266#1" layer="-1.00" shape="153.94,249.83 146.74,250.17 148.81,268.66 119.92,272.36 120.49,281.17 125.18,281.10 125.58,286.71 168.31,282.21 166.44,266.52 156.07,268.03 153.94,249.83" type="building"/>
   <poly color="237,199,199" fill="1" id="172758127" layer="-1.00" shape="58.31,88.79 58.95,77.01 107.24,72.20 113.08,129.83 97.22,132.49 90.73,86.64 58.31,88.79" type="amenity"/>
   <poly color="red" fill="1" id="172758127#1" layer="-1.00" shape="58.31,88.79 58.95,77.01 107.24,72.20 113.08,129.83 97.22,132.49 90.73,86.64 58.31,88.79" type="building"/>
   <poly color="237,199,199" fill="1" id="172992188" layer="-1.00" shape="328.12,616.05 361.99,609.52 363.94,618.88 346.09,622.55 349.61,638.57 334.12,641.93 328.12,616.05" type="amenity"/>
   <poly color="red" fill="1" id="192894313" layer="-1.00" shape="102.86,165.73 101.62,154.67 117.82,153.99 112.92,120.79 120.88,118.66 129.79,162.62 102.86,165.73" type="building"/>
   <poly color="red" fill="1" id="216397901" layer="-1.00" shape="477.61,648.43 488.40,645.86 486.27,636.96 475.48,639.52 477.61,648.43" type="building"/>
   <poly color="red" fill="1" id="216397903" layer="-1.00" shape="396.57,708.39 408.14,705.68 406.88,700.33 395.32,703.03 396.57,708.39" type="building"/>
   <poly color="red" fill="1" id="216397912" layer="-1.00" shape="472.87,702.64 480.23,700.93 478.07,691.70 470.70,693.42 472.87,702.64" type="building"/>
   <poly color="red" fill="1" id="216397917" layer="-1.00" shape="490.01,703.03 504.36,699.65 501.98,689.59 487.63,692.96 490.01,703.03" type="building"/>
   <poly color="red" fill="1" id="216397919" layer="-1.00" shape="400.79,661.02 416.24,656.61 413.23,646.12 397.78,650.53 400.79,661.02" type="building"/>
   <poly color="red" fill="1" id="216397921" layer="-1.00" shape="464.24,659.78 476.75,656.49 474.91,649.54 462.40,652.81 464.24,659.78" type="building"/>
   <poly color="red" fill="1" id="216397923" layer="-1.00" shape="452.92,659.27 462.50,656.36 460.48,649.74 450.89,652.64 452.92,659.27" type="building"/>
   <poly color="red" fill="1" id="216397930" layer="-1.00" shape="389.95,699.48 404.43,696.71 402.20,685.04 387.72,687.80 389.95,699.48" type="building"/>
   <poly color="red" fill="1" id="216397933" layer="-1.00" shape="479.83,725.46 492.75,723.41 491.40,714.97 478.48,717.01 479.83,725.46" type="building"/>
   <poly color="red" fill="1" id="216397935" layer="-1.00" shape="408.39,677.90 421.09,673.41 417.44,663.16 404.74,667.66 408.39,677.90" type="building"/>
   <poly color="red" fill="1" id="216397945" layer="-1.00" shape="418.47,693.49 430.83,690.20 428.44,681.28 416.09,684.56 418.47,693.49" type="building"/>
   <poly color="red" fill="1" id="216397946" layer="-1.00" shape="463.28,695.94 469.15,694.14 467.38,688.41 461.51,690.22 463.28,695.94" type="building"/>
   <poly color="red" fill="1" id="216397958" layer="-1.00" shape="430.92,697.23 431.92,700.56 423.80,702.90 427.03,714.05 440.93,710.05 438.06,700.13 439.73,699.64 438.34,695.01 430.92,697.23" type="building"/>
   <poly color="red" fill="1" id="216397959" layer="-1.00" shape="472.36,674.86 471.41,671.80 458.27,675.82 461.30,685.64 474.43,681.62 474.00,680.19 482.08,677.13 480.10,671.92 472.36,674.86" type="building"/>
   <poly color="red" fill="1" id="216621923" layer="-1.00" shape="616.03,106.21 625.42,112.34 635.00,97.76 633.02,96.48 636.54,91.55 640.88,94.54 647.85,84.52 635.43,75.92 628.45,85.94 630.86,87.61 627.24,92.69 625.61,91.63 616.03,106.21" type="building"/>
   <poly color="red" fill="1" id="216621930" layer="-1.00" shape="454.92,0.62" type="building"/>
   <poly color="red" fill="1" id="216621952" layer="-1.00" shape="495.88,25.33 507.90,28.84 511.19,17.61 499.19,14.10 495.88,25.33" type="building"/>
   <poly color="red" fill="1" id="216621958" layer="-1.00" shape="348.68,50.01 354.37,46.57 350.77,40.65 345.09,44.09 348.68,50.01" type="building"/>
   <poly color="red" fill="1" id="216621964" layer="-1.00" shape="608.90,113.53 612.64,114.98 613.88,111.80 610.14,110.34 608.90,113.53" type="building"/>
   <poly color="red" fill="1" id="216621998" layer="-1.00" shape="556.83,112.93 564.14,114.49 565.45,108.42 558.13,106.86 556.83,112.93" type="building"/>
   <poly color="red" fill="1" id="216622002" layer="-1.00" shape="345.32,41.74 357.82,35.15 351.72,23.66 339.22,30.26 345.32,41.74" type="building"/>
   <poly color="red" fill="1" id="216622004" layer="-1.00" shape="513.55,29.34 532.56,35.29 535.01,27.51 515.99,21.56 513.55,29.34" type="building"/>
   <poly color="red" fill="1" id="216622007" layer="-1.00" shape="591.73,85.81 604.64,92.97 610.71,82.10 597.80,74.93 591.73,85.81" type="building"/>
   <poly color="red" fill="1" id="216622011" layer="-1.00" shape="629.87,4.92 624.27,3.30 629.87,4.92" type="building"/>
   <poly color="red" fill="1" id="216622013" layer="-1.00" shape="425.99,64.79 439.06,69.75 442.77,60.01 429.70,55.04 425.99,64.79" type="building"/>
   <poly color="red" fill="1" id="216622015" layer="-1.00" shape="375.67,78.47 380.33,64.96 377.43,63.96 372.76,77.46 375.67,78.47" type="building"/>
   <poly color="red" fill="1" id="216622024" layer="-1.00" shape="380.57,62.30 381.99,58.58 377.94,57.04 376.52,60.76 380.57,62.30" type="building"/>
   <poly color="red" fill="1" id="216622028" layer="-1.00" shape="677.58,99.12 686.39,98.39 685.73,90.43 676.92,91.16 677.58,99.12" type="building"/>
   <poly color="red" fill="1" id="216622029" layer="-1.00" shape="697.57,100.73 706.47,100.78 706.50,95.22 697.60,95.17 697.57,100.73" type="building"/>
   <poly color="red" fill="1" id="216622033" layer="-1.00" shape="364.28,49.54 376.45,53.64 379.91,43.38 367.75,39.29 364.28,49.54" type="building"/>
   <poly color="red" fill="1" id="216622038" layer="-1.00" shape="382.24,64.38 398.25,68.90 400.19,62.06 384.18,57.53 382.24,64.38" type="building"/>
   <poly color="red" fill="1" id="216622045" layer="-1.00" shape="378.94,79.67 384.57,80.78 386.17,72.76 380.53,71.64 378.94,79.67" type="building"/>
   <poly color="red" fill="1" id="216622050" layer="-1.00" shape="756.92,70.93 762.88,70.76 762.66,63.44 756.71,63.61 756.92,70.93" type="building"/>
   <poly color="red" fill="1" id="216622054" layer="-1.00" shape="652.89,101.91 666.81,102.00 666.87,91.56 652.96,91.46 652.89,101.91" type="building"/>
   <poly color="red" fill="1" id="216622084" layer="-1.00" shape="574.33,23.67 589.78,27.92 592.47,18.17 577.02,13.92 574.33,23.67" type="building"/>
   <poly color="red" fill="1" id="216622090" layer="-1.00" shape="534.08,11.76 548.62,16.35 552.48,4.17 537.95,-0.41 534.08,11.76" type="building"/>
   <poly color="red" fill="1" id="216622097" layer="-1.00" shape="720.09,70.46 736.47,69.86 736.15,61.12 719.77,61.72 720.09,70.46" type="building"/>
   <poly color="red" fill="1" id="216622117" layer="-1.00" shape="497.88,60.83 513.90,65.86 517.47,54.54 501.46,49.50 497.88,60.83" type="building"/>
   <poly color="red" fill="1" id="216622119" layer="-1.00" shape="578.24,9.04 579.65,4.22 576.94,3.44 575.53,8.26 578.24,9.04" type="building"/>
   <poly color="red" fill="1" id="216622123" layer="-1.00" shape="706.13,168.19 714.61,171.28 716.95,164.89 708.47,161.80 706.13,168.19" type="building"/>
   <poly color="red" fill="1" id="216622133" layer="-1.00" shape="387.94,7.27 399.43,12.18 404.40,0.59 392.91,-4.31 387.94,7.27" type="building"/>
   <poly color="red" fill="1" id="216622138" layer="-1.00" shape="427.96,36.60 432.27,39.71 434.27,36.97 429.95,33.86 427.96,36.60" type="building"/>
   <poly color="red" fill="1" id="216622144" layer="-1.00" shape="710.69,144.47 715.65,131.91 704.33,127.46 699.37,140.02 710.69,144.47" type="building"/>
   <poly color="red" fill="1" id="216622147" layer="-1.00" shape="522.02,67.86 536.78,72.26 540.64,59.35 525.88,54.95 522.02,67.86" type="building"/>
   <poly color="red" fill="1" id="216622151" layer="-1.00" shape="584.79,51.94 594.81,54.16 597.56,41.85 587.53,39.62 584.79,51.94" type="building"/>
   <poly color="red" fill="1" id="216622154" layer="-1.00" shape="518.39,63.57 522.22,51.26 519.63,50.45 515.80,62.76 518.39,63.57" type="building"/>
   <poly color="red" fill="1" id="216622159" layer="-1.00" shape="689.12,163.03 704.55,168.17 709.14,154.44 693.72,149.31 689.12,163.03" type="building"/>
   <poly color="red" fill="1" id="216622163" layer="-1.00" shape="364.73,19.59 369.53,22.40 372.45,17.44 367.65,14.64 364.73,19.59" type="building"/>
   <poly color="red" fill="1" id="216622164" layer="-1.00" shape="585.92,115.15 596.95,119.74 603.32,104.50 592.29,99.92 585.92,115.15" type="building"/>
   <poly color="red" fill="1" id="216622169" layer="-1.00" shape="344.44,3.73 348.31,5.58 352.19,-2.46 348.31,-4.31 344.44,3.73" type="building"/>
   <poly color="red" fill="1" id="216622172" layer="-1.00" shape="651.17,146.26 664.38,152.00 669.14,141.10 655.94,135.37 651.17,146.26" type="building"/>
   <poly color="red" fill="1" id="216622173" layer="-1.00" shape="369.54,27.11 383.39,32.24 387.31,21.74 373.45,16.61 369.54,27.11" type="building"/>
   <poly color="red" fill="1" id="216622175" layer="-1.00" shape="714.84,173.48 731.66,179.33 736.25,166.19 719.44,160.33 714.84,173.48" type="building"/>
   <poly color="red" fill="1" id="216622177" layer="-1.00" shape="424.24,29.58 432.59,34.55 436.14,28.61 427.80,23.63 424.24,29.58" type="building"/>
   <poly color="red" fill="1" id="216622182" layer="-1.00" shape="720.88,151.06 743.45,159.29 748.04,146.80 725.46,138.57 720.88,151.06" type="building"/>
   <poly color="red" fill="1" id="216622183" layer="-1.00" shape="537.67,75.88 540.71,76.66 542.50,69.82 539.46,69.02 537.67,75.88" type="building"/>
   <poly color="red" fill="1" id="216622187" layer="-1.00" shape="543.58,91.42 558.14,95.66 561.22,85.10 546.65,80.88 543.58,91.42" type="building"/>
   <poly color="red" fill="1" id="216622203" layer="-1.00" shape="358.25,20.48 360.84,21.76 363.53,16.34 360.93,15.07 358.25,20.48" type="building"/>
   <poly color="red" fill="1" id="216622204" layer="-1.00" shape="569.76,108.66 580.41,113.81 587.42,99.37 576.77,94.23 569.76,108.66" type="building"/>
   <poly color="red" fill="1" id="216622216" layer="-1.00" shape="505.35,93.02 514.27,97.97 521.46,85.10 512.54,80.15 505.35,93.02" type="building"/>
   <poly color="red" fill="1" id="216622223" layer="-1.00" shape="523.37,100.46 533.19,103.54 537.83,88.80 528.02,85.72 523.37,100.46" type="building"/>
   <poly color="red" fill="1" id="216622232" layer="-1.00" shape="489.70,21.54 493.89,18.53 491.94,15.82 487.75,18.84 489.70,21.54" type="building"/>
   <poly color="red" fill="1" id="216622240" layer="-1.00" shape="396.77,83.04 405.42,83.31 405.67,75.31 397.02,75.04 396.77,83.04" type="building"/>
   <poly color="red" fill="1" id="216622261" layer="-1.00" shape="407.68,56.22 418.93,60.78 424.04,48.22 412.79,43.66 407.68,56.22" type="building"/>
   <poly color="red" fill="1" id="216622265" layer="-1.00" shape="353.72,75.59 369.35,79.07 371.72,68.48 356.09,64.99 353.72,75.59" type="building"/>
   <poly color="red" fill="1" id="216622270" layer="-1.00" shape="406.64,69.37 406.83,63.26 402.43,63.13 402.24,69.24 406.64,69.37" type="building"/>
   <poly color="red" fill="1" id="216622287" layer="-1.00" shape="379.84,55.36 383.31,56.68 385.03,52.19 381.55,50.87 379.84,55.36" type="building"/>
   <poly color="red" fill="1" id="216622291" layer="-1.00" shape="369.57,36.37 375.65,38.12 376.51,35.17 370.42,33.41 369.57,36.37" type="building"/>
   <poly color="red" fill="1" id="216622294" layer="-1.00" shape="765.62,144.91 781.38,150.63 786.03,137.91 770.26,132.18 765.62,144.91" type="building"/>
   <poly color="red" fill="1" id="216622298" layer="-1.00" shape="694.72,121.37 703.85,125.11 706.41,118.91 697.27,115.17 694.72,121.37" type="building"/>
   <poly color="red" fill="1" id="216622299" layer="-1.00" shape="591.27,30.79 596.42,32.05 597.54,27.50 592.38,26.24 591.27,30.79" type="building"/>
   <poly color="red" fill="1" id="216622300" layer="-1.00" shape="496.95,48.04 502.93,49.82 504.67,43.98 498.68,42.21 496.95,48.04" type="building"/>
   <poly color="red" fill="1" id="216622301" layer="-1.00" shape="775.08,159.64 781.86,162.38 785.44,153.53 778.66,150.81 775.08,159.64" type="building"/>
   <poly color="red" fill="1" id="216622303" layer="-1.00" shape="569.54,83.77 572.37,73.81 566.93,72.27 564.11,82.23 569.54,83.77" type="building"/>
   <poly color="red" fill="1" id="216622305" layer="-1.00" shape="731.47,76.92 739.83,76.40 739.49,70.87 731.12,71.39 731.47,76.92" type="building"/>
   <poly color="red" fill="1" id="216622308" layer="-1.00" shape="550.84,72.51 563.05,75.79 565.36,67.23 553.15,63.96 550.84,72.51" type="building"/>
   <poly color="red" fill="1" id="216622312" layer="-1.00" shape="645.22,145.29 649.85,147.09 652.76,139.64 648.12,137.84 645.22,145.29" type="building"/>
   <poly color="red" fill="1" id="216622313" layer="-1.00" shape="392.54,36.61 406.57,41.28 410.55,29.38 396.53,24.71 392.54,36.61" type="building"/>
   <poly color="red" fill="1" id="216622316" layer="-1.00" shape="455.98,4.68 474.99,16.25 481.10,6.27 462.10,-5.30 455.98,4.68" type="building"/>
   <poly color="red" fill="1" id="216622317" layer="-1.00" shape="364.96,-8.19 377.47,-1.99 364.96,-8.19" type="building"/>
   <poly color="red" fill="1" id="216622318" layer="-1.00" shape="552.95,17.68 568.32,22.92 572.46,10.81 557.10,5.56 552.95,17.68" type="building"/>
   <poly color="red" fill="1" id="216622320" layer="-1.00" shape="566.11,4.27 575.16,6.75 576.75,1.00 567.69,-1.49 566.11,4.27" type="building"/>
   <poly color="red" fill="1" id="216622323" layer="-1.00" shape="578.91,53.50 582.28,54.24 582.94,51.20 579.58,50.46 578.91,53.50" type="building"/>
   <poly color="red" fill="1" id="216622325" layer="-1.00" shape="592.23,14.97 594.73,15.93 596.27,11.89 593.77,10.93 592.23,14.97" type="building"/>
   <poly color="red" fill="1" id="216622327" layer="-1.00" shape="585.75,76.86 596.75,67.15 592.66,62.53 581.65,72.24 585.75,76.86" type="building"/>
   <poly color="red" fill="1" id="216622334" layer="-1.00" shape="348.54,8.88 358.06,14.07 363.56,4.04 354.04,-1.15 348.54,8.88" type="building"/>
   <poly color="red" fill="1" id="216622335" layer="-1.00" shape="535.92,-1.83 532.07,-3.05 535.92,-1.83" type="building"/>
   <poly color="red" fill="1" id="216622343" layer="-1.00" shape="555.58,-1.25" type="building"/>
   <poly color="red" fill="1" id="216622356" layer="-1.00" shape="775.79,61.86 781.70,61.50 782.16,68.39 791.89,67.75 790.77,49.85 775.02,50.97 775.79,61.86" type="building"/>
   <poly color="red" fill="1" id="216622358" layer="-1.00" shape="455.68,79.39 470.64,87.21 474.84,79.10 472.55,77.36 474.53,73.03 462.19,66.72 455.68,79.39" type="building"/>
   <poly color="red" fill="1" id="216622359" layer="-1.00" shape="680.63,79.57 695.98,83.37 697.67,79.32 702.93,80.78 704.21,75.16 682.81,70.20 680.63,79.57" type="building"/>
   <poly color="red" fill="1" id="216622365" layer="-1.00" shape="761.37,94.64 761.11,87.63 745.15,88.22 745.63,101.22 765.93,100.85 765.76,94.52 761.37,94.64" type="building"/>
   <poly color="red" fill="1" id="216622369" layer="-1.00" shape="667.24,129.63 687.31,137.30 693.13,121.95 681.23,117.46 676.49,126.60 669.46,123.89 667.24,129.63" type="building"/>
   <poly color="red" fill="1" id="216622373" layer="-1.00" shape="598.52,30.39 611.85,34.69 617.20,27.04 608.73,22.71 609.78,18.92 602.24,16.85 598.52,30.39" type="building"/>
   <poly color="red" fill="1" id="216622375" layer="-1.00" shape="653.63,74.30 663.86,78.16 662.61,82.89 671.17,85.78 677.09,67.10 658.17,60.78 653.63,74.30" type="building"/>
   <poly color="red" fill="1" id="216622377" layer="-1.00" shape="451.46,35.97 444.57,31.59 439.35,39.78 452.63,48.19 461.20,34.39 454.75,30.52 451.46,35.97" type="building"/>
   <poly color="red" fill="1" id="216622380" layer="-1.00" shape="627.01,138.45 642.73,144.43 648.51,129.32 639.52,126.13 637.53,129.20 631.57,127.38 627.01,138.45" type="building"/>
   <poly color="red" fill="1" id="216622385" layer="-1.00" shape="771.07,197.66 774.99,188.04 768.01,185.22 771.27,177.81 758.32,172.15 751.72,187.17 764.36,192.70 763.58,194.62 771.07,197.66" type="building"/>
   <poly color="red" fill="1" id="216622395" layer="-1.00" shape="513.32,6.26 518.92,7.97 519.20,7.06 525.81,9.16 529.39,-2.11 518.89,2.35 514.89,1.12 513.32,6.26" type="building"/>
   <poly color="red" fill="1" id="216622410" layer="-1.00" shape="481.36,84.07 496.75,91.22 500.18,83.99 495.79,81.63 499.43,73.33 485.98,67.67 482.55,74.45 484.94,76.07 481.36,84.07" type="building"/>
   <poly color="red" fill="1" id="216622418" layer="-1.00" shape="414.99,84.54 433.99,86.23 434.85,76.49 426.59,75.75 426.75,70.78 420.46,70.59 420.31,75.20 415.85,74.81 414.99,84.54" type="building"/>
   <poly color="red" fill="1" id="216622425" layer="-1.00" shape="474.87,51.31 467.83,49.20 466.13,54.86 473.95,57.20 474.82,54.32 488.39,58.31 491.29,48.51 476.95,44.30 474.87,51.31" type="building"/>
   <poly color="red" fill="1" id="216639634" layer="-1.00" shape="2.34,62.08" type="building"/>
   <poly color="red" fill="1" id="216711003" layer="-1.00" shape="357.42,112.64 354.45,135.47 365.40,137.15 371.11,94.95 360.47,93.28 358.66,104.75 346.77,103.53 345.87,101.08 334.94,98.23 332.84,106.24 357.42,112.64" type="building"/>
   <poly color="red" fill="1" id="216711004" layer="-1.00" shape="400.07,158.69 392.53,158.38 392.12,168.23 403.46,168.72 403.76,161.46 404.56,161.48 404.69,155.40 408.53,155.75 409.09,149.61 400.60,149.30 400.07,158.69" type="building"/>
   <poly color="red" fill="0" id="216711005" layer="-1.00" shape="1.18,301.48 2.29,306.41 15.91,305.71 14.51,298.01 16.85,296.18 14.65,282.17 -1.07,284.97 -0.64,291.14" type="building"/>
   <poly color="red" fill="1" id="216711006" layer="-1.00" shape="35.99,42.34 36.66,48.37 56.97,45.57 54.93,32.41 42.44,34.34 43.41,40.61 36.25,41.41 33.31,27.95 20.29,30.78 23.41,45.07 35.99,42.34" type="building"/>
   <poly color="red" fill="1" id="216711007" layer="-1.00" shape="20.70,-10.83 20.86,-5.74 18.63,-5.55 18.87,-2.78 28.47,-3.60 28.23,-6.37 26.62,-6.23 26.47,-11.06 28.48,-11.14 19.12,-10.76 20.70,-10.83" type="building"/>
   <poly color="red" fill="1" id="216711009" layer="-1.00" shape="324.15,137.27 335.84,140.23 334.77,144.71 361.48,150.01 360.48,153.53 375.18,156.97 379.48,139.91 366.67,136.63 365.68,140.04 349.31,136.64 348.24,138.83 337.33,135.95 337.51,131.75 325.97,129.17 324.15,137.27" type="building"/>
   <poly color="red" fill="1" id="216711010" layer="-1.00" shape="159.60,-12.90 160.79,-12.87 154.19,-13.03 155.34,-13.00 155.30,-9.21 155.11,-9.21 155.03,-4.52 166.36,-4.33 166.44,-9.02 159.55,-9.14 159.60,-12.90" type="building"/>
   <poly color="red" fill="1" id="216711011" layer="-1.00" shape="204.82,176.78 250.92,162.51 247.29,150.91 232.99,153.12 233.81,155.27 229.68,156.57 228.00,153.50 218.65,156.23 219.43,159.98 211.50,162.93 208.06,153.25 216.24,147.99 231.46,144.91 230.02,139.71 214.30,141.54 197.17,157.42 204.82,176.78" type="building"/>
   <poly color="red" fill="1" id="216711015" layer="-1.00" shape="107.55,195.41 135.92,191.78 135.43,187.76 141.13,186.67 142.39,182.44 138.86,178.69 134.48,179.33 133.77,175.03 123.52,176.67 122.23,175.40 120.27,175.51 119.35,176.55 119.04,177.78 105.48,179.10 106.74,184.06 104.33,184.25 105.02,190.93 107.33,191.01 107.55,195.41" type="building"/>
   <poly color="red" fill="0" id="216711016" layer="-1.00" shape="13.02,166.27 12.61,156.67 5.72,142.98 5.65,145.45 15.47,144.33 16.21,137.79 5.87,138.36 5.36,131.78 18.99,128.64 17.10,114.75 2.77,117.50 2.82,121.58" type="building"/>
   <poly color="red" fill="1" id="216711018" layer="-1.00" shape="181.62,102.89 192.16,101.79 191.44,94.94 180.90,96.04 181.62,102.89" type="building"/>
   <poly color="red" fill="1" id="216711020" layer="-1.00" shape="44.20,-8.85 48.30,-8.80 48.39,-17.12 44.30,-17.17 44.20,-8.85" type="building"/>
   <poly color="red" fill="1" id="216711021" layer="-1.00" shape="4.07,273.08 8.36,272.38 7.30,265.95 3.01,266.65 4.07,273.08" type="building"/>
   <poly color="red" fill="1" id="216711023" layer="-1.00" shape="24.98,187.67 39.12,184.91 36.77,172.94 22.62,175.69 24.98,187.67" type="building"/>
   <poly color="red" fill="1" id="216711026" layer="-1.00" shape="51.85,85.97 51.90,78.34 48.59,78.31 48.54,85.94 51.85,85.97" type="building"/>
   <poly color="red" fill="1" id="216711027" layer="-1.00" shape="29.33,98.66 34.86,98.89 35.00,95.58 29.47,95.34 29.33,98.66" type="building"/>
   <poly color="red" fill="1" id="216711028" layer="-1.00" shape="171.66,-2.75 180.95,-2.62 181.05,-10.16 171.77,-10.29 171.66,-2.75" type="building"/>
   <poly color="red" fill="1" id="216711029" layer="-1.00" shape="10.67,275.68 28.95,272.65 26.93,260.53 8.65,263.55 10.67,275.68" type="building"/>
   <poly color="red" fill="1" id="216711031" layer="-1.00" shape="344.60,177.16 356.08,180.18 358.42,171.32 346.94,168.31 344.60,177.16" type="building"/>
   <poly color="red" fill="1" id="216711032" layer="-1.00" shape="230.93,69.46 248.00,69.29 247.86,56.50 230.79,56.69 230.93,69.46" type="building"/>
   <poly color="red" fill="1" id="216711033" layer="-1.00" shape="258.36,-0.67 271.26,-0.38 258.36,-0.67" type="building"/>
   <poly color="red" fill="1" id="216711035" layer="-1.00" shape="-4.77,265.91 -0.48,265.54 -1.64,252.11 -4.77,265.91" type="building"/>
   <poly color="red" fill="1" id="216711036" layer="-1.00" shape="337.47,163.19 347.42,165.26 350.88,148.80 340.92,146.72 337.47,163.19" type="building"/>
   <poly color="red" fill="1" id="216711039" layer="-1.00" shape="32.34,94.92 36.05,95.22 36.20,93.32 32.50,93.01 32.34,94.92" type="building"/>
   <poly color="red" fill="1" id="216711041" layer="-1.00" shape="133.28,76.90 176.47,73.44 175.44,60.64 132.24,64.11 133.28,76.90" type="building"/>
   <poly color="red" fill="1" id="216711045" layer="-1.00" shape="142.33,36.31 156.29,35.82 155.82,22.27 141.86,22.75 142.33,36.31" type="building"/>
   <poly color="red" fill="1" id="216711047" layer="-1.00" shape="278.50,3.05 292.97,3.18 293.01,-1.94 278.54,-2.05 278.50,3.05" type="building"/>
   <poly color="red" fill="1" id="216711048" layer="-1.00" shape="80.36,175.70 85.27,174.71 82.49,161.13 77.57,162.13 80.36,175.70" type="building"/>
   <poly color="red" fill="1" id="216711051" layer="-1.00" shape="196.23,79.38 204.97,78.93 204.70,73.75 195.96,74.19 196.23,79.38" type="building"/>
   <poly color="red" fill="1" id="216711052" layer="-1.00" shape="75.65,-12.74 80.05,-12.55 75.65,-12.74" type="building"/>
   <poly color="red" fill="1" id="216711053" layer="-1.00" shape="27.98,109.73 36.58,110.26 37.08,102.37 28.48,101.83 27.98,109.73" type="building"/>
   <poly color="red" fill="1" id="216711055" layer="-1.00" shape="367.98,126.68 376.86,127.73 377.35,123.54 368.48,122.49 367.98,126.68" type="building"/>
   <poly color="red" fill="1" id="216711056" layer="-1.00" shape="122.72,37.04 137.67,36.66 137.27,20.68 122.32,21.04 122.72,37.04" type="building"/>
   <poly color="red" fill="1" id="216711058" layer="-1.00" shape="43.96,183.99 56.13,181.89 54.46,172.35 42.29,174.45 43.96,183.99" type="building"/>
   <poly color="red" fill="1" id="216711060" layer="-1.00" shape="63.06,38.76 59.43,39.08 59.93,44.65 63.34,44.40 63.06,38.76" type="building"/>
   <poly color="red" fill="1" id="216711061" layer="-1.00" shape="183.79,61.06 190.57,61.16 190.72,50.86 183.94,50.77 183.79,61.06" type="building"/>
   <poly color="red" fill="1" id="216711062" layer="-1.00" shape="55.54,122.31 68.70,122.34 68.72,111.94 55.56,111.91 55.54,122.31" type="building"/>
   <poly color="red" fill="1" id="216711063" layer="-1.00" shape="176.19,186.69 198.62,180.81 195.55,169.18 173.12,175.05 176.19,186.69" type="building"/>
   <poly color="red" fill="1" id="216711065" layer="-1.00" shape="266.28,148.93 280.32,145.68 278.06,136.01 264.03,139.27 266.28,148.93" type="building"/>
   <poly color="red" fill="1" id="216711066" layer="-1.00" shape="182.45,-5.56 188.12,-5.54 188.13,-8.22 182.46,-8.24 182.45,-5.56" type="building"/>
   <poly color="red" fill="1" id="216711067" layer="-1.00" shape="71.73,178.11 78.37,176.53 77.03,170.87 70.39,172.45 71.73,178.11" type="building"/>
   <poly color="red" fill="1" id="216711069" layer="-1.00" shape="74.73,-8.69 77.25,-8.61 77.36,-11.91 74.83,-11.99 74.73,-8.69" type="building"/>
   <poly color="red" fill="1" id="216711071" layer="-1.00" shape="303.30,52.81 310.86,52.74 310.83,49.89 303.27,49.97 303.30,52.81" type="building"/>
   <poly color="red" fill="1" id="216711072" layer="-1.00" shape="255.95,126.95 275.37,124.65 274.30,115.68 254.87,117.97 255.95,126.95" type="building"/>
   <poly color="red" fill="1" id="216711073" layer="-1.00" shape="41.24,110.38 54.02,110.20 53.96,106.11 41.18,106.31 41.24,110.38" type="building"/>
   <poly color="red" fill="1" id="216711074" layer="-1.00" shape="370.03,114.32 386.80,115.71 387.45,108.00 370.68,106.59 370.03,114.32" type="building"/>
   <poly color="red" fill="1" id="216711075" layer="-1.00" shape="197.86,60.96 203.85,60.46 203.33,54.24 197.34,54.73 197.86,60.96" type="building"/>
   <poly color="red" fill="1" id="216711076" layer="-1.00" shape="64.66,128.80 69.51,128.83 69.53,123.18 64.69,123.15 64.66,128.80" type="building"/>
   <poly color="red" fill="1" id="216711079" layer="-1.00" shape="319.79,74.35 334.18,82.48 337.55,76.56 323.17,68.41 319.79,74.35" type="building"/>
   <poly color="red" fill="1" id="216711081" layer="-1.00" shape="257.49,137.91 262.82,136.35 261.82,133.00 256.51,134.56 257.49,137.91" type="building"/>
   <poly color="red" fill="1" id="216711082" layer="-1.00" shape="315.34,80.65 322.24,81.65 322.83,77.60 315.93,76.60 315.34,80.65" type="building"/>
   <poly color="red" fill="1" id="216711083" layer="-1.00" shape="70.44,133.00 88.04,133.85 88.65,121.40 71.06,120.54 70.44,133.00" type="building"/>
   <poly color="red" fill="1" id="216711085" layer="-1.00" shape="410.42,105.31 414.76,105.50 415.18,95.53 410.83,95.35 410.42,105.31" type="building"/>
   <poly color="red" fill="1" id="216711086" layer="-1.00" shape="289.04,55.82 294.23,55.98 294.41,50.03 289.22,49.87 289.04,55.82" type="building"/>
   <poly color="red" fill="1" id="216711089" layer="-1.00" shape="25.57,133.54 37.13,133.73 37.29,123.76 25.72,123.57 25.57,133.54" type="building"/>
   <poly color="red" fill="1" id="216711090" layer="-1.00" shape="220.81,-8.93 227.58,-9.04 220.81,-8.93" type="building"/>
   <poly color="red" fill="1" id="216711091" layer="-1.00" shape="410.15,139.38 431.38,140.37 432.05,125.97 410.82,125.00 410.15,139.38" type="building"/>
   <poly color="red" fill="1" id="216711093" layer="-1.00" shape="96.27,29.26 82.64,30.03 83.36,42.70 97.00,41.93 96.27,29.26" type="building"/>
   <poly color="237,199,255" fill="1" id="216711093#1" layer="-1.00" shape="96.27,29.26 82.64,30.03 83.36,42.70 97.00,41.93 96.27,29.26" type="shop"/>
   <poly color="red" fill="1" id="216711095" layer="-1.00" shape="424.65,112.97 432.32,113.28 432.80,101.53 425.12,101.22 424.65,112.97" type="building"/>
   <poly color="red" fill="1" id="216711096" layer="-1.00" shape="138.99,-4.86 151.26,-4.79 151.28,-8.88 139.00,-8.94 138.99,-4.86" type="building"/>
   <poly color="red" fill="1" id="216711097" layer="-1.00" shape="15.36,282.47 30.67,280.05 29.79,274.48 14.48,276.91 15.36,282.47" type="building"/>
   <poly color="red" fill="1" id="216711098" layer="-1.00" shape="21.54,160.41 39.86,160.79 40.16,146.76 21.83,146.38 21.54,160.41" type="building"/>
   <poly color="red" fill="1" id="216711101" layer="-1.00" shape="17.11,250.26 23.04,249.82 22.64,244.54 16.72,244.99 17.11,250.26" type="building"/>
   <poly color="red" fill="1" id="216711102" layer="-1.00" shape="261.60,57.49 283.13,58.31 283.38,52.04 261.83,51.23 261.60,57.49" type="building"/>
   <poly color="red" fill="1" id="216711103" layer="-1.00" shape="44.23,73.30 51.21,72.09 50.14,65.95 43.16,67.15 44.23,73.30" type="building"/>
   <poly color="red" fill="1" id="216711104" layer="-1.00" shape="97.53,173.97 106.46,172.82 105.76,167.34 96.82,168.48 97.53,173.97" type="building"/>
   <poly color="red" fill="1" id="216711106" layer="-1.00" shape="41.85,165.65 75.52,159.40 73.43,148.20 41.18,154.48 41.85,165.65" type="building"/>