<?xml version="1.0" encoding="utf-8"?><!-- generated on 10/11/17 17:54:42 by SUMO netconvert Version 0.25.0
<?xml version="1.0" encoding="UTF-8"?>

<configuration xmlns:xsi="http://www.w3.org/2001/XMLSchema-instance" xsi:noNamespaceSchemaLocation="http://sumo.dlr.de/xsd/netconvertConfiguration.xsd">

    <input>
        <type-files value="osmNetconvert.typ.xml"/>
        <osm-files value="IN_Gerolfing_rural_800.osm"/>
    </input>

    <output>
        <output-file value="IN_Gerolfing_rural_800.net.xml"/>
    </output>

    <projection>
        <proj.utm value="true"/>
    </projection>

    <edge_removal>
        <remove-edges.by-type value="highway.track,highway.unsurfaced,highway.raceway,highway.bridleway,highway.path,highway.footway,highway.pedestrian,highway.cycleway,highway.step,highway.steps,highway.stairs,highway.bus_guideway,highway.ford,railway.rail,railway.tram,railway.light_rail,railway.subway,railway.preserved,railway.narrow_gauge,railway.monorail,railway.funicular"/>
    </edge_removal>

</configuration>
-->
<net version="0.25">
   <location convBoundary="0.00,0.00,795.01,785.20" netOffset="-672274.36,-5402574.60" origBoundary="11.343998,48.752248,11.354758,48.759237" projParameter="+proj=utm +zone=32 +ellps=WGS84 +datum=WGS84 +units=m +no_defs"/>
   <type allow="pedestrian" id="highway.bridleway" numLanes="1" oneway="1" priority="1" speed="2.78" width="2.00"/>
   <type allow="bus" id="highway.bus_guideway" numLanes="1" oneway="1" priority="1" speed="8.33"/>
   <type allow="bicycle" id="highway.cycleway" numLanes="1" oneway="0" priority="1" speed="5.56" width="1.00"/>
   <type allow="pedestrian" id="highway.footway" numLanes="1" oneway="1" priority="1" speed="8.33" width="2.00"/>
   <type allow="army" id="highway.ford" numLanes="1" oneway="0" priority="1" speed="2.78"/>
   <type disallow="tram rail_urban rail rail_electric ship" id="highway.living_street" numLanes="1" oneway="0" priority="3" speed="2.78"/>
   <type allow="private emergency authority army vip passenger hov taxi bus coach delivery truck trailer motorcycle evehicle custom1 custom2" id="highway.motorway" numLanes="2" oneway="1" priority="13" speed="44.44"/>
   <type allow="private emergency authority army vip passenger hov taxi bus coach delivery truck trailer motorcycle evehicle custom1 custom2" id="highway.motorway_link" numLanes="1" oneway="1" priority="12" speed="22.22"/>
   <type allow="bicycle pedestrian" id="highway.path" numLanes="1" oneway="1" priority="1" speed="2.78" width="2.00"/>
   <type allow="pedestrian" id="highway.pedestrian" numLanes="1" oneway="1" priority="1" speed="8.33" width="2.00"/>
   <type disallow="tram rail_urban rail rail_electric ship" id="highway.primary" numLanes="2" oneway="0" priority="9" speed="27.78"/>
   <type disallow="tram rail_urban rail rail_electric ship" id="highway.primary_link" numLanes="1" oneway="0" priority="8" speed="22.22"/>
   <type allow="vip" id="highway.raceway" numLanes="2" oneway="0" priority="14" speed="83.33"/>
   <type disallow="tram rail_urban rail rail_electric ship" id="highway.residential" numLanes="1" oneway="0" priority="4" speed="13.89"/>
   <type disallow="tram rail_urban rail rail_electric ship" id="highway.secondary" numLanes="2" oneway="0" priority="7" speed="27.78"/>
   <type disallow="tram rail_urban rail rail_electric ship" id="highway.secondary_link" numLanes="1" oneway="0" priority="6" speed="22.22"/>
   <type allow="delivery bicycle pedestrian" id="highway.service" numLanes="1" oneway="0" priority="2" speed="5.56"/>
   <type disallow="tram rail_urban rail rail_electric ship" id="highway.services" numLanes="1" oneway="0" priority="1" speed="8.33"/>
   <type allow="pedestrian" id="highway.stairs" numLanes="1" oneway="1" priority="1" speed="1.39" width="2.00"/>
   <type allow="pedestrian" id="highway.step" numLanes="1" oneway="1" priority="1" speed="1.39" width="2.00"/>
   <type allow="pedestrian" id="highway.steps" numLanes="1" oneway="1" priority="1" speed="1.39" width="2.00"/>
   <type disallow="tram rail_urban rail rail_electric ship" id="highway.tertiary" numLanes="1" oneway="0" priority="6" speed="22.22"/>
   <type disallow="tram rail_urban rail rail_electric ship" id="highway.tertiary_link" numLanes="1" oneway="0" priority="5" speed="22.22"/>
   <type disallow="tram rail_urban rail rail_electric ship" id="highway.track" numLanes="1" oneway="0" priority="1" speed="5.56"/>
   <type disallow="tram rail_urban rail rail_electric bicycle pedestrian ship" id="highway.trunk" numLanes="2" oneway="0" priority="11" speed="27.78"/>
   <type disallow="tram rail_urban rail rail_electric bicycle pedestrian ship" id="highway.trunk_link" numLanes="1" oneway="0" priority="10" speed="22.22"/>
   <type disallow="tram rail_urban rail rail_electric ship" id="highway.unclassified" numLanes="1" oneway="0" priority="5" speed="13.89"/>
   <type disallow="tram rail_urban rail rail_electric ship" id="highway.unsurfaced" numLanes="1" oneway="0" priority="1" speed="8.33"/>
   <type allow="rail_urban" id="railway.light_rail" numLanes="1" oneway="1" priority="15" speed="27.78"/>
   <type allow="rail" id="railway.preserved" numLanes="1" oneway="1" priority="15" speed="27.78"/>
   <type allow="rail rail_electric" id="railway.rail" numLanes="1" oneway="1" priority="15" speed="83.33"/>
   <type allow="rail_urban" id="railway.subway" numLanes="1" oneway="1" priority="15" speed="27.78"/>
   <type allow="tram" id="railway.tram" numLanes="1" oneway="1" priority="15" speed="13.89"/>
   <edge function="internal" id=":1079587374_0">
      <lane disallow="tram rail_urban rail rail_electric ship" id=":1079587374_0_0" index="0" length="4.82" shape="710.14,49.73 710.90,48.45 711.71,48.00 712.55,48.37 713.43,49.57" speed="8.33"/>
   </edge>
   <edge function="internal" id=":1234714139_0">
      <lane disallow="tram rail_urban rail rail_electric ship" id=":1234714139_0_0" index="0" length="0.10" shape="710.46,582.58 710.48,582.58" speed="11.11"/>
   </edge>
   <edge function="internal" id=":1234714139_1">
      <lane disallow="tram rail_urban rail rail_electric ship" id=":1234714139_1_0" index="0" length="2.41" shape="710.46,582.58 709.10,582.00 708.54,581.26" speed="8.33"/>
   </edge>
   <edge function="internal" id=":1234714139_4">
      <lane id=":1234714139_4_0" index="0" length="2.41" shape="708.54,581.26 708.80,580.37 709.87,579.34" speed="8.33"/>
   </edge>
   <edge function="internal" id=":1234714139_2">
      <lane disallow="tram rail_urban rail rail_electric ship" id=":1234714139_2_0" index="0" length="0.10" shape="709.87,579.34 709.87,579.34" speed="11.11"/>
   </edge>
   <edge function="internal" id=":1234714139_3">
      <lane disallow="tram rail_urban rail rail_electric ship" id=":1234714139_3_0" index="0" length="2.41" shape="709.87,579.34 711.23,579.92 711.79,580.65" speed="13.89"/>
   </edge>
   <edge function="internal" id=":1234714139_5">
      <lane id=":1234714139_5_0" index="0" length="2.41" shape="711.79,580.65 711.54,581.54 710.48,582.58" speed="13.89"/>
   </edge>
   <edge function="internal" id=":1717648464_0">
      <lane disallow="tram rail_urban rail rail_electric ship" id=":1717648464_0_0" index="0" length="0.26" shape="755.64,562.57 755.57,562.32" speed="8.33"/>
   </edge>
   <edge function="internal" id=":1717648464_1">
      <lane disallow="tram rail_urban rail rail_electric ship" id=":1717648464_1_0" index="0" length="2.41" shape="755.64,562.57 756.23,561.21 756.97,560.66" speed="8.33"/>
   </edge>
   <edge function="internal" id=":1717648464_4">
      <lane id=":1717648464_4_0" index="0" length="2.41" shape="756.97,560.66 757.86,560.92 758.89,561.99" speed="8.33"/>
   </edge>
   <edge function="internal" id=":1717648464_2">
      <lane disallow="tram rail_urban rail rail_electric ship" id=":1717648464_2_0" index="0" length="0.79" shape="758.69,561.23 758.89,561.99" speed="8.33"/>
   </edge>
   <edge function="internal" id=":1717648464_3">
      <lane disallow="tram rail_urban rail rail_electric ship" id=":1717648464_3_0" index="0" length="2.41" shape="758.69,561.23 758.32,562.67 757.68,563.33" speed="8.33"/>
   </edge>
   <edge function="internal" id=":1717648464_5">
      <lane id=":1717648464_5_0" index="0" length="2.41" shape="757.68,563.33 756.76,563.22 755.57,562.32" speed="8.33"/>
   </edge>
   <edge function="internal" id=":1717648471_0">
      <lane disallow="tram rail_urban rail rail_electric ship" id=":1717648471_0_0" index="0" length="2.44" shape="423.40,635.24 422.54,632.96" speed="22.22"/>
   </edge>
   <edge function="internal" id=":1717648471_1">
      <lane disallow="tram rail_urban rail rail_electric ship" id=":1717648471_1_0" index="0" length="3.00" shape="423.40,635.24 422.67,633.55 422.80,632.41" speed="22.22"/>
   </edge>
   <edge function="internal" id=":1717648471_4">
      <lane id=":1717648471_4_0" index="0" length="3.00" shape="422.80,632.41 423.78,631.83 425.63,631.80" speed="22.22"/>
   </edge>
   <edge function="internal" id=":1717648471_2">
      <lane disallow="tram rail_urban rail rail_electric ship" id=":1717648471_2_0" index="0" length="0.10" shape="425.63,631.80 425.63,631.80" speed="22.22"/>
   </edge>
   <edge function="internal" id=":1717648471_3">
      <lane disallow="tram rail_urban rail rail_electric ship" id=":1717648471_3_0" index="0" length="2.41" shape="425.63,631.80 425.30,633.25 424.67,633.93" speed="22.22"/>
   </edge>
   <edge function="internal" id=":1717648471_5">
      <lane id=":1717648471_5_0" index="0" length="2.41" shape="424.67,633.93 423.75,633.83 422.54,632.96" speed="22.22"/>
   </edge>
   <edge function="internal" id=":1717648474_0">
      <lane disallow="tram rail_urban rail rail_electric ship" id=":1717648474_0_0" index="0" length="1.58" shape="222.09,706.54 221.82,704.98" speed="2.78"/>
   </edge>
   <edge function="internal" id=":1717648474_1">
      <lane disallow="tram rail_urban rail rail_electric ship" id=":1717648474_1_0" index="0" length="2.41" shape="222.09,706.54 222.47,705.11 223.12,704.45" speed="2.78"/>
   </edge>
   <edge function="internal" id=":1717648474_4">
      <lane id=":1717648474_4_0" index="0" length="2.41" shape="223.12,704.45 224.04,704.58 225.22,705.49" speed="2.78"/>
   </edge>
   <edge function="internal" id=":1717648474_2">
      <lane disallow="tram rail_urban rail rail_electric ship" id=":1717648474_2_0" index="0" length="0.53" shape="225.12,704.96 225.22,705.49" speed="2.78"/>
   </edge>
   <edge function="internal" id=":1717648474_3">
      <lane disallow="tram rail_urban rail rail_electric ship" id=":1717648474_3_0" index="0" length="2.41" shape="225.12,704.96 224.31,706.20 223.48,706.62" speed="2.78"/>
   </edge>
   <edge function="internal" id=":1717648474_5">
      <lane id=":1717648474_5_0" index="0" length="2.41" shape="223.48,706.62 222.66,706.21 221.82,704.98" speed="2.78"/>
   </edge>
   <edge function="internal" id=":194344698_0">
      <lane disallow="tram rail_urban rail rail_electric ship" id=":194344698_0_0" index="0" length="7.23" shape="180.72,764.74 179.58,763.16 179.16,761.55 179.45,759.91 180.47,758.24" speed="11.11"/>
   </edge>
   <edge function="internal" id=":194344698_1">
      <lane disallow="tram rail_urban rail rail_electric ship" id=":194344698_1_0" index="0" length="4.82" shape="180.72,764.74 180.46,763.28 180.77,762.41 181.65,762.13 183.10,762.46" speed="8.33"/>
   </edge>
   <edge function="internal" id=":194344698_2">
      <lane disallow="tram rail_urban rail rail_electric ship" id=":194344698_2_0" index="0" length="2.36" shape="183.02,760.34 182.69,760.88 182.59,761.42 182.73,761.94 183.10,762.46" speed="11.11"/>
   </edge>
   <edge function="internal" id=":194344698_3">
      <lane disallow="tram rail_urban rail rail_electric ship" id=":194344698_3_0" index="0" length="4.82" shape="183.02,760.34 181.60,760.77 180.70,760.57 180.32,759.72 180.47,758.24" speed="13.89"/>
   </edge>
   <edge function="internal" id=":194344711_0">
      <lane disallow="tram rail_urban rail rail_electric ship" id=":194344711_0_0" index="0" length="0.10" shape="442.61,635.65 442.59,635.66" speed="13.89"/>
   </edge>
   <edge function="internal" id=":194344711_1">
      <lane disallow="tram rail_urban rail rail_electric ship" id=":194344711_1_0" index="0" length="2.41" shape="442.61,635.65 441.23,635.09 440.66,634.36" speed="13.89"/>
   </edge>
   <edge function="internal" id=":194344711_4">
      <lane id=":194344711_4_0" index="0" length="2.41" shape="440.66,634.36 440.90,633.47 441.95,632.42" speed="13.89"/>
   </edge>
   <edge function="internal" id=":194344711_2">
      <lane disallow="tram rail_urban rail rail_electric ship" id=":194344711_2_0" index="0" length="0.10" shape="441.98,632.41 441.95,632.42" speed="13.89"/>
   </edge>
   <edge function="internal" id=":194344711_3">
      <lane disallow="tram rail_urban rail rail_electric ship" id=":194344711_3_0" index="0" length="2.41" shape="441.98,632.41 443.35,632.99 443.91,633.73" speed="13.89"/>
   </edge>
   <edge function="internal" id=":194344711_5">
      <lane id=":194344711_5_0" index="0" length="2.41" shape="443.91,633.73 443.66,634.61 442.59,635.66" speed="13.89"/>
   </edge>
   <edge function="internal" id=":194344723_0">
      <lane disallow="tram rail_urban rail rail_electric ship" id=":194344723_0_0" index="0" length="5.55" shape="758.46,577.35 757.93,575.79 757.12,574.76 756.02,574.25 754.64,574.28" speed="8.33"/>
   </edge>
   <edge function="internal" id=":194344723_1">
      <lane disallow="tram rail_urban rail rail_electric ship" id=":194344723_1_0" index="0" length="10.11" shape="758.46,577.35 757.84,574.43 757.43,572.40 757.04,570.36 756.51,567.42" speed="8.33"/>
   </edge>
   <edge function="internal" id=":194344723_2">
      <lane disallow="tram rail_urban rail rail_electric ship" id=":194344723_2_0" index="0" length="11.21" shape="758.46,577.35 758.25,574.21 759.15,571.92 761.15,570.49 764.24,569.91" speed="8.33"/>
   </edge>
   <edge function="internal" id=":194344723_3">
      <lane disallow="tram rail_urban rail rail_electric ship" id=":194344723_3_0" index="0" length="4.82" shape="758.46,577.35 759.01,575.97 759.73,575.39 760.62,575.63 761.69,576.67" speed="8.33"/>
   </edge>
   <edge function="internal" id=":194344723_4">
      <lane disallow="tram rail_urban rail rail_electric ship" id=":194344723_4_0" index="0" length="5.21" shape="764.38,573.21 762.94,573.48 762.01,574.14 761.59,575.21 761.69,576.67" speed="8.33"/>
   </edge>
   <edge function="internal" id=":194344723_5">
      <lane disallow="tram rail_urban rail rail_electric ship" id=":194344723_5_0" index="0" length="9.80" shape="764.38,573.21 754.64,574.28" speed="8.33"/>
   </edge>
   <edge function="internal" id=":194344723_6">
      <lane disallow="tram rail_urban rail rail_electric ship" id=":194344723_6_0" index="0" length="5.59" shape="764.38,573.21 761.34,572.95 759.02,571.90" speed="8.33"/>
   </edge>
   <edge function="internal" id=":194344723_7">
      <lane disallow="tram rail_urban rail rail_electric ship" id=":194344723_7_0" index="0" length="2.41" shape="764.38,573.21 763.11,572.43 762.66,571.63" speed="8.33"/>
   </edge>
   <edge function="internal" id=":194344723_16">
      <lane id=":194344723_16_0" index="0" length="5.23" shape="759.02,571.90 757.41,570.06 756.51,567.42" speed="8.33"/>
   </edge>
   <edge function="internal" id=":194344723_17">
      <lane id=":194344723_17_0" index="0" length="2.41" shape="762.66,571.63 763.04,570.79 764.24,569.91" speed="8.33"/>
   </edge>
   <edge function="internal" id=":194344723_8">
      <lane disallow="tram rail_urban rail rail_electric ship" id=":194344723_8_0" index="0" length="6.02" shape="759.76,566.84 760.26,568.24 761.17,569.22 762.50,569.78 764.24,569.91" speed="8.33"/>
   </edge>
   <edge function="internal" id=":194344723_9">
      <lane disallow="tram rail_urban rail rail_electric ship" id=":194344723_9_0" index="0" length="10.01" shape="759.76,566.84 760.29,569.76 760.67,571.76 761.07,573.76 761.69,576.67" speed="8.33"/>
   </edge>
   <edge function="internal" id=":194344723_10">
      <lane disallow="tram rail_urban rail rail_electric ship" id=":194344723_10_0" index="0" length="10.27" shape="759.76,566.84 759.86,569.65 759.04,571.83 757.30,573.37 754.64,574.28" speed="8.33"/>
   </edge>
   <edge function="internal" id=":194344723_11">
      <lane disallow="tram rail_urban rail rail_electric ship" id=":194344723_11_0" index="0" length="4.82" shape="759.76,566.84 759.17,568.20 758.43,568.76 757.54,568.50 756.51,567.42" speed="8.33"/>
   </edge>
   <edge function="internal" id=":194344723_12">
      <lane disallow="tram rail_urban rail rail_electric ship" id=":194344723_12_0" index="0" length="4.99" shape="754.02,571.03 755.32,570.59 756.16,569.84 756.56,568.79 756.51,567.42" speed="8.33"/>
   </edge>
   <edge function="internal" id=":194344723_13">
      <lane disallow="tram rail_urban rail rail_electric ship" id=":194344723_13_0" index="0" length="10.29" shape="754.02,571.03 756.99,570.50 759.10,570.20 761.23,570.04 764.24,569.91" speed="8.33"/>
   </edge>
   <edge function="internal" id=":194344723_14">
      <lane disallow="tram rail_urban rail rail_electric ship" id=":194344723_14_0" index="0" length="5.60" shape="754.02,571.03 756.84,570.94 759.05,571.85 759.31,572.15" speed="8.33"/>
   </edge>
   <edge function="internal" id=":194344723_15">
      <lane disallow="tram rail_urban rail rail_electric ship" id=":194344723_15_0" index="0" length="2.60" shape="754.02,571.03 755.39,571.61 755.95,572.35 755.90,572.53" speed="8.33"/>
   </edge>
   <edge function="internal" id=":194344723_18">
      <lane id=":194344723_18_0" index="0" length="5.18" shape="759.31,572.15 760.67,573.76 761.69,576.67" speed="8.33"/>
   </edge>
   <edge function="internal" id=":194344723_19">
      <lane id=":194344723_19_0" index="0" length="2.22" shape="755.90,572.53 755.70,573.24 754.64,574.28" speed="8.33"/>
   </edge>
   <edge function="internal" id=":2119632577_0">
      <lane disallow="tram rail_urban rail rail_electric ship" id=":2119632577_0_0" index="0" length="4.82" shape="785.71,569.03 786.98,569.81 787.43,570.61 787.05,571.46 785.85,572.33" speed="8.33"/>
   </edge>
   <edge function="internal" id=":2119632598_0">
      <lane disallow="tram rail_urban rail rail_electric ship" id=":2119632598_0_0" index="0" length="0.10" shape="403.11,642.48 403.11,642.48" speed="13.89"/>
   </edge>
   <edge function="internal" id=":2119632598_1">
      <lane disallow="tram rail_urban rail rail_electric ship" id=":2119632598_1_0" index="0" length="2.41" shape="403.11,642.48 401.76,641.86 401.22,641.11" speed="13.89"/>
   </edge>
   <edge function="internal" id=":2119632598_4">
      <lane id=":2119632598_4_0" index="0" length="2.41" shape="401.22,641.11 401.49,640.23 402.58,639.22" speed="13.89"/>
   </edge>
   <edge function="internal" id=":2119632598_2">
      <lane disallow="tram rail_urban rail rail_electric ship" id=":2119632598_2_0" index="0" length="0.10" shape="402.59,639.22 402.58,639.22" speed="13.89"/>
   </edge>
   <edge function="internal" id=":2119632598_3">
      <lane disallow="tram rail_urban rail rail_electric ship" id=":2119632598_3_0" index="0" length="2.41" shape="402.59,639.22 403.94,639.84 404.48,640.59" speed="13.89"/>
   </edge>
   <edge function="internal" id=":2119632598_5">
      <lane id=":2119632598_5_0" index="0" length="2.41" shape="404.48,640.59 404.20,641.47 403.11,642.48" speed="13.89"/>
   </edge>
   <edge function="internal" id=":2119632599_0">
      <lane disallow="tram rail_urban rail rail_electric ship" id=":2119632599_0_0" index="0" length="0.10" shape="426.69,645.38 426.69,645.37" speed="13.89"/>
   </edge>
   <edge function="internal" id=":2119632599_1">
      <lane disallow="tram rail_urban rail rail_electric ship" id=":2119632599_1_0" index="0" length="2.41" shape="426.69,645.38 427.09,643.95 427.74,643.30" speed="13.89"/>
   </edge>
   <edge function="internal" id=":2119632599_4">
      <lane id=":2119632599_4_0" index="0" length="2.41" shape="427.74,643.30 428.65,643.43 429.83,644.34" speed="13.89"/>
   </edge>
   <edge function="internal" id=":2119632599_2">
      <lane disallow="tram rail_urban rail rail_electric ship" id=":2119632599_2_0" index="0" length="0.10" shape="429.84,644.38 429.83,644.34" speed="13.89"/>
   </edge>
   <edge function="internal" id=":2119632599_3">
      <lane disallow="tram rail_urban rail rail_electric ship" id=":2119632599_3_0" index="0" length="2.41" shape="429.84,644.38 429.42,645.81 428.76,646.45" speed="13.89"/>
   </edge>
   <edge function="internal" id=":2119632599_5">
      <lane id=":2119632599_5_0" index="0" length="2.41" shape="428.76,646.45 427.85,646.31 426.69,645.37" speed="13.89"/>
   </edge>
   <edge function="internal" id=":288359593_0">
      <lane disallow="tram rail_urban rail rail_electric ship" id=":288359593_0_0" index="0" length="6.48" shape="425.81,642.53 425.09,641.02 424.00,640.04 422.55,639.57 420.73,639.63" speed="13.89"/>
   </edge>
   <edge function="internal" id=":288359593_1">
      <lane disallow="tram rail_urban rail rail_electric ship" id=":288359593_1_0" index="0" length="7.47" shape="425.81,642.53 423.47,635.43" speed="18.05"/>
   </edge>
   <edge function="internal" id=":288359593_2">
      <lane disallow="tram rail_urban rail rail_electric ship" id=":288359593_2_0" index="0" length="5.32" shape="425.81,642.53 425.34,639.53 425.95,637.33" speed="13.89"/>
   </edge>
   <edge function="internal" id=":288359593_3">
      <lane disallow="tram rail_urban rail rail_electric ship" id=":288359593_3_0" index="0" length="2.41" shape="425.81,642.53 426.24,641.10 426.90,640.47" speed="13.89"/>
   </edge>
   <edge function="internal" id=":288359593_16">
      <lane id=":288359593_16_0" index="0" length="5.59" shape="425.95,637.33 425.99,637.20 427.74,635.54 430.62,634.56" speed="13.89"/>
   </edge>
   <edge function="internal" id=":288359593_17">
      <lane id=":288359593_17_0" index="0" length="2.41" shape="426.90,640.47 427.81,640.62 428.97,641.56" speed="13.89"/>
   </edge>
   <edge function="internal" id=":288359593_4">
      <lane disallow="tram rail_urban rail rail_electric ship" id=":288359593_4_0" index="0" length="5.14" shape="431.23,637.80 429.88,638.26 429.05,639.04 428.74,640.14 428.97,641.56" speed="13.89"/>
   </edge>
   <edge function="internal" id=":288359593_5">
      <lane disallow="tram rail_urban rail rail_electric ship" id=":288359593_5_0" index="0" length="10.66" shape="431.23,637.80 428.21,638.37 425.99,638.77 423.77,639.14 420.73,639.63" speed="13.89"/>
   </edge>
   <edge function="internal" id=":288359593_6">
      <lane disallow="tram rail_urban rail rail_electric ship" id=":288359593_6_0" index="0" length="8.82" shape="431.23,637.80 428.34,638.11 426.09,637.81 424.46,636.92 423.47,635.43" speed="18.05"/>
   </edge>
   <edge function="internal" id=":288359593_7">
      <lane disallow="tram rail_urban rail rail_electric ship" id=":288359593_7_0" index="0" length="4.82" shape="431.23,637.80 429.86,637.22 429.30,636.48 429.56,635.60 430.62,634.56" speed="13.89"/>
   </edge>
   <edge function="internal" id=":288359593_8">
      <lane disallow="tram rail_urban rail rail_electric ship" id=":288359593_8_0" index="0" length="6.19" shape="425.67,631.90 426.45,633.32 427.54,634.24 428.93,634.65 430.62,634.56" speed="18.05"/>
   </edge>
   <edge function="internal" id=":288359593_9">
      <lane disallow="tram rail_urban rail rail_electric ship" id=":288359593_9_0" index="0" length="10.21" shape="425.67,631.90 426.72,634.71 427.43,636.69 428.08,638.69 428.97,641.56" speed="18.05"/>
   </edge>
   <edge function="internal" id=":288359593_10">
      <lane disallow="tram rail_urban rail rail_electric ship" id=":288359593_10_0" index="0" length="5.35" shape="425.67,631.90 426.28,634.83 425.67,637.10" speed="18.05"/>
   </edge>
   <edge function="internal" id=":288359593_11">
      <lane disallow="tram rail_urban rail rail_electric ship" id=":288359593_11_0" index="0" length="4.41" shape="425.67,631.90 426.45,633.60 426.34,634.76 425.35,635.37 425.14,635.38" speed="22.22"/>
   </edge>
   <edge function="internal" id=":288359593_18">
      <lane id=":288359593_18_0" index="0" length="5.67" shape="425.67,637.10 423.82,638.70 420.73,639.63" speed="18.05"/>
   </edge>
   <edge function="internal" id=":288359593_19">
      <lane id=":288359593_19_0" index="0" length="1.67" shape="425.14,635.38 423.47,635.43" speed="22.22"/>
   </edge>
   <edge function="internal" id=":288359593_12">
      <lane disallow="tram rail_urban rail rail_electric ship" id=":288359593_12_0" index="0" length="3.46" shape="420.21,636.38 421.69,636.11 422.73,635.86 423.32,635.64 423.47,635.43" speed="18.05"/>
   </edge>
   <edge function="internal" id=":288359593_13">
      <lane disallow="tram rail_urban rail rail_electric ship" id=":288359593_13_0" index="0" length="10.57" shape="420.21,636.38 423.23,635.89 425.42,635.52 427.61,635.12 430.62,634.56" speed="13.89"/>
   </edge>
   <edge function="internal" id=":288359593_14">
      <lane disallow="tram rail_urban rail rail_electric ship" id=":288359593_14_0" index="0" length="11.28" shape="420.21,636.38 423.31,636.29 425.81,637.12 427.69,638.88 428.97,641.56" speed="13.89"/>
   </edge>
   <edge function="internal" id=":288359593_15">
      <lane disallow="tram rail_urban rail rail_electric ship" id=":288359593_15_0" index="0" length="4.82" shape="420.21,636.38 421.56,636.99 422.10,637.74 421.82,638.62 420.73,639.63" speed="13.89"/>
   </edge>
   <edge function="internal" id=":288359595_0">
      <lane disallow="tram rail_urban rail rail_electric ship" id=":288359595_0_0" index="0" length="5.65" shape="454.16,720.39 453.49,719.26 452.47,718.56 451.11,718.30 449.40,718.48" speed="11.11"/>
   </edge>
   <edge function="internal" id=":288359595_1">
      <lane disallow="tram rail_urban rail rail_electric ship" id=":288359595_1_0" index="0" length="9.57" shape="454.16,720.39 450.85,711.42" speed="13.89"/>
   </edge>
   <edge function="internal" id=":288359595_2">
      <lane disallow="tram rail_urban rail rail_electric ship" id=":288359595_2_0" index="0" length="2.41" shape="454.16,720.39 454.51,718.95 455.14,718.27" speed="13.89"/>
   </edge>
   <edge function="internal" id=":288359595_9">
      <lane id=":288359595_9_0" index="0" length="2.41" shape="455.14,718.27 456.05,718.38 457.26,719.25" speed="13.89"/>
   </edge>
   <edge function="internal" id=":288359595_3">
      <lane disallow="tram rail_urban rail rail_electric ship" id=":288359595_3_0" index="0" length="9.57" shape="453.94,710.27 457.26,719.25" speed="13.89"/>
   </edge>
   <edge function="internal" id=":288359595_4">
      <lane disallow="tram rail_urban rail rail_electric ship" id=":288359595_4_0" index="0" length="5.41" shape="453.94,710.27 454.59,713.31 454.08,715.56" speed="11.11"/>
   </edge>
   <edge function="internal" id=":288359595_5">
      <lane disallow="tram rail_urban rail rail_electric ship" id=":288359595_5_0" index="0" length="2.41" shape="453.94,710.27 453.60,711.72 452.96,712.39" speed="13.89"/>
   </edge>
   <edge function="internal" id=":288359595_10">
      <lane id=":288359595_10_0" index="0" length="5.69" shape="454.08,715.56 454.05,715.69 452.32,717.42 449.40,718.48" speed="11.11"/>
   </edge>
   <edge function="internal" id=":288359595_11">
      <lane id=":288359595_11_0" index="0" length="2.41" shape="452.96,712.39 452.05,712.29 450.85,711.42" speed="13.89"/>
   </edge>
   <edge function="internal" id=":288359595_6">
      <lane disallow="tram rail_urban rail rail_electric ship" id=":288359595_6_0" index="0" length="5.18" shape="448.72,715.25 450.09,714.75 450.90,713.95 451.15,712.84 450.85,711.42" speed="11.11"/>
   </edge>
   <edge function="internal" id=":288359595_7">
      <lane disallow="tram rail_urban rail rail_electric ship" id=":288359595_7_0" index="0" length="10.42" shape="448.72,715.25 451.71,714.99 454.13,715.56 455.98,716.99 457.26,719.25" speed="11.11"/>
   </edge>
   <edge function="internal" id=":288359595_8">
      <lane disallow="tram rail_urban rail rail_electric ship" id=":288359595_8_0" index="0" length="4.82" shape="448.72,715.25 450.11,715.80 450.68,716.53 450.44,717.42 449.40,718.48" speed="8.33"/>
   </edge>
   <edge function="internal" id=":288436121_0">
      <lane disallow="tram rail_urban rail rail_electric ship" id=":288436121_0_0" index="0" length="5.06" shape="767.94,622.91 767.50,621.61 766.75,620.76 765.67,620.37 764.27,620.43" speed="8.33"/>
   </edge>
   <edge function="internal" id=":288436121_1">
      <lane disallow="tram rail_urban rail rail_electric ship" id=":288436121_1_0" index="0" length="9.55" shape="767.94,622.91 766.10,613.54" speed="8.33"/>
   </edge>
   <edge function="internal" id=":288436121_2">
      <lane disallow="tram rail_urban rail rail_electric ship" id=":288436121_2_0" index="0" length="4.82" shape="767.94,622.91 768.53,621.55 769.27,621.00 770.15,621.25 771.19,622.33" speed="8.33"/>
   </edge>
   <edge function="internal" id=":288436121_3">
      <lane disallow="tram rail_urban rail rail_electric ship" id=":288436121_3_0" index="0" length="9.64" shape="769.33,612.86 771.19,622.33" speed="8.33"/>
   </edge>
   <edge function="internal" id=":288436121_4">
      <lane disallow="tram rail_urban rail rail_electric ship" id=":288436121_4_0" index="0" length="10.44" shape="769.33,612.86 769.52,615.73 768.74,617.94 766.99,619.51 764.27,620.43" speed="8.33"/>
   </edge>
   <edge function="internal" id=":288436121_5">
      <lane disallow="tram rail_urban rail rail_electric ship" id=":288436121_5_0" index="0" length="4.82" shape="769.33,612.86 768.78,614.24 768.06,614.82 767.17,614.58 766.10,613.54" speed="8.33"/>
   </edge>
   <edge function="internal" id=":288436121_6">
      <lane disallow="tram rail_urban rail rail_electric ship" id=":288436121_6_0" index="0" length="5.03" shape="763.67,617.19 764.97,616.75 765.82,615.99 766.19,614.92 766.10,613.54" speed="8.33"/>
   </edge>