<?xml version="1.0" encoding="utf-8"?><!-- generated on 10/11/17 17:54:33 by SUMO netconvert Version 0.25.0
<?xml version="1.0" encoding="UTF-8"?>

<configuration xmlns:xsi="http://www.w3.org/2001/XMLSchema-instance" xsi:noNamespaceSchemaLocation="http://sumo.dlr.de/xsd/netconvertConfiguration.xsd">

    <input>
        <type-files value="osmNetconvert.typ.xml"/>
        <osm-files value="IN_GVZ_industrial_800.osm"/>
    </input>

    <output>
        <output-file value="IN_GVZ_industrial_800.net.xml"/>
    </output>

    <projection>
        <proj.utm value="true"/>
    </projection>

    <edge_removal>
        <remove-edges.by-type value="highway.track,highway.unsurfaced,highway.raceway,highway.bridleway,highway.path,highway.footway,highway.pedestrian,highway.cycleway,highway.step,highway.steps,highway.stairs,highway.bus_guideway,highway.ford,railway.rail,railway.tram,railway.light_rail,railway.subway,railway.preserved,railway.narrow_gauge,railway.monorail,railway.funicular"/>
    </edge_removal>

</configuration>
-->
<net version="0.25">
   <location convBoundary="0.00,0.00,800.14,801.13" netOffset="-675957.20,-5405762.57" origBoundary="11.395448,48.779829,11.406312,48.787002" projParameter="+proj=utm +zone=32 +ellps=WGS84 +datum=WGS84 +units=m +no_defs"/>
   <type allow="pedestrian" id="highway.bridleway" numLanes="1" oneway="1" priority="1" speed="2.78" width="2.00"/>
   <type allow="bus" id="highway.bus_guideway" numLanes="1" oneway="1" priority="1" speed="8.33"/>
   <type allow="bicycle" id="highway.cycleway" numLanes="1" oneway="0" priority="1" speed="5.56" width="1.00"/>
   <type allow="pedestrian" id="highway.footway" numLanes="1" oneway="1" priority="1" speed="8.33" width="2.00"/>
   <type allow="army" id="highway.ford" numLanes="1" oneway="0" priority="1" speed="2.78"/>
   <type disallow="tram rail_urban rail rail_electric ship" id="highway.living_street" numLanes="1" oneway="0" priority="3" speed="2.78"/>
   <type allow="private emergency authority army vip passenger hov taxi bus coach delivery truck trailer motorcycle evehicle custom1 custom2" id="highway.motorway" numLanes="2" oneway="1" priority="13" speed="44.44"/>
   <type allow="private emergency authority army vip passenger hov taxi bus coach delivery truck trailer motorcycle evehicle custom1 custom2" id="highway.motorway_link" numLanes="1" oneway="1" priority="12" speed="22.22"/>
   <type allow="bicycle pedestrian" id="highway.path" numLanes="1" oneway="1" priority="1" speed="2.78" width="2.00"/>
   <type allow="pedestrian" id="highway.pedestrian" numLanes="1" oneway="1" priority="1" speed="8.33" width="2.00"/>
   <type disallow="tram rail_urban rail rail_electric ship" id="highway.primary" numLanes="2" oneway="0" priority="9" speed="27.78"/>
   <type disallow="tram rail_urban rail rail_electric ship" id="highway.primary_link" numLanes="1" oneway="0" priority="8" speed="22.22"/>
   <type allow="vip" id="highway.raceway" numLanes="2" oneway="0" priority="14" speed="83.33"/>
   <type disallow="tram rail_urban rail rail_electric ship" id="highway.residential" numLanes="1" oneway="0" priority="4" speed="13.89"/>
   <type disallow="tram rail_urban rail rail_electric ship" id="highway.secondary" numLanes="2" oneway="0" priority="7" speed="27.78"/>
   <type disallow="tram rail_urban rail rail_electric ship" id="highway.secondary_link" numLanes="1" oneway="0" priority="6" speed="22.22"/>
   <type allow="delivery bicycle pedestrian" id="highway.service" numLanes="1" oneway="0" priority="2" speed="5.56"/>
   <type disallow="tram rail_urban rail rail_electric ship" id="highway.services" numLanes="1" oneway="0" priority="1" speed="8.33"/>
   <type allow="pedestrian" id="highway.stairs" numLanes="1" oneway="1" priority="1" speed="1.39" width="2.00"/>
   <type allow="pedestrian" id="highway.step" numLanes="1" oneway="1" priority="1" speed="1.39" width="2.00"/>
   <type allow="pedestrian" id="highway.steps" numLanes="1" oneway="1" priority="1" speed="1.39" width="2.00"/>
   <type disallow="tram rail_urban rail rail_electric ship" id="highway.tertiary" numLanes="1" oneway="0" priority="6" speed="22.22"/>
   <type disallow="tram rail_urban rail rail_electric ship" id="highway.tertiary_link" numLanes="1" oneway="0" priority="5" speed="22.22"/>
   <type disallow="tram rail_urban rail rail_electric ship" id="highway.track" numLanes="1" oneway="0" priority="1" speed="5.56"/>
   <type disallow="tram rail_urban rail rail_electric bicycle pedestrian ship" id="highway.trunk" numLanes="2" oneway="0" priority="11" speed="27.78"/>
   <type disallow="tram rail_urban rail rail_electric bicycle pedestrian ship" id="highway.trunk_link" numLanes="1" oneway="0" priority="10" speed="22.22"/>
   <type disallow="tram rail_urban rail rail_electric ship" id="highway.unclassified" numLanes="1" oneway="0" priority="5" speed="13.89"/>
   <type disallow="tram rail_urban rail rail_electric ship" id="highway.unsurfaced" numLanes="1" oneway="0" priority="1" speed="8.33"/>
   <type allow="rail_urban" id="railway.light_rail" numLanes="1" oneway="1" priority="15" speed="27.78"/>
   <type allow="rail" id="railway.preserved" numLanes="1" oneway="1" priority="15" speed="27.78"/>
   <type allow="rail rail_electric" id="railway.rail" numLanes="1" oneway="1" priority="15" speed="83.33"/>
   <type allow="rail_urban" id="railway.subway" numLanes="1" oneway="1" priority="15" speed="27.78"/>
   <type allow="tram" id="railway.tram" numLanes="1" oneway="1" priority="15" speed="13.89"/>
   <edge function="internal" id=":1137585359_0">
      <lane disallow="tram rail_urban rail rail_electric ship" id=":1137585359_0_0" index="0" length="5.11" shape="176.73,619.85 175.34,619.52 174.18,619.68 173.24,620.35 172.54,621.51" speed="6.95"/>
   </edge>
   <edge function="internal" id=":1137585359_1">
      <lane allow="delivery bicycle pedestrian" id=":1137585359_1_0" index="0" length="9.75" shape="176.73,619.85 167.73,616.10" speed="5.56"/>
   </edge>
   <edge function="internal" id=":1137585359_2">
      <lane disallow="tram rail_urban rail rail_electric ship" id=":1137585359_2_0" index="0" length="10.46" shape="176.73,619.85 174.23,618.44 172.79,616.58 172.44,614.25 173.16,611.47" speed="6.95"/>
   </edge>
   <edge function="internal" id=":1137585359_3">
      <lane allow="delivery bicycle pedestrian" id=":1137585359_3_0" index="0" length="4.82" shape="176.73,619.85 175.88,618.63 175.79,617.72 176.47,617.09 177.92,616.77" speed="5.56"/>
   </edge>
   <edge function="internal" id=":1137585359_4">
      <lane allow="delivery bicycle pedestrian" id=":1137585359_4_0" index="0" length="5.03" shape="176.20,612.74 175.86,614.08 176.03,615.20 176.72,616.09 177.92,616.77" speed="6.95"/>
   </edge>
   <edge function="internal" id=":1137585359_5">
      <lane disallow="tram rail_urban rail rail_electric ship" id=":1137585359_5_0" index="0" length="9.51" shape="176.20,612.74 172.54,621.51" speed="8.33"/>
   </edge>
   <edge function="internal" id=":1137585359_6">
      <lane allow="delivery bicycle pedestrian" id=":1137585359_6_0" index="0" length="5.23" shape="176.20,612.74 174.73,615.21 172.83,616.59" speed="6.95"/>
   </edge>
   <edge function="internal" id=":1137585359_7">
      <lane disallow="tram rail_urban rail rail_electric ship" id=":1137585359_7_0" index="0" length="2.41" shape="176.20,612.74 174.97,613.56 174.04,613.62" speed="8.33"/>
   </edge>
   <edge function="internal" id=":1137585359_16">
      <lane id=":1137585359_16_0" index="0" length="5.22" shape="172.83,616.59 170.49,616.89 167.73,616.10" speed="6.95"/>
   </edge>
   <edge function="internal" id=":1137585359_17">
      <lane id=":1137585359_17_0" index="0" length="2.41" shape="174.04,613.62 173.44,612.93 173.16,611.47" speed="8.33"/>
   </edge>
   <edge function="internal" id=":1137585359_8">
      <lane disallow="tram rail_urban rail rail_electric ship" id=":1137585359_8_0" index="0" length="5.03" shape="169.08,613.09 170.41,613.47 171.53,613.32 172.45,612.66 173.16,611.47" speed="6.95"/>
   </edge>
   <edge function="internal" id=":1137585359_9">
      <lane allow="delivery bicycle pedestrian" id=":1137585359_9_0" index="0" length="9.58" shape="169.08,613.09 177.92,616.77" speed="5.56"/>
   </edge>
   <edge function="internal" id=":1137585359_10">
      <lane disallow="tram rail_urban rail rail_electric ship" id=":1137585359_10_0" index="0" length="10.33" shape="169.08,613.09 171.50,614.60 172.88,616.51 173.23,618.81 172.54,621.51" speed="6.95"/>
   </edge>
   <edge function="internal" id=":1137585359_11">
      <lane allow="delivery bicycle pedestrian" id=":1137585359_11_0" index="0" length="4.82" shape="169.08,613.09 169.87,614.35 169.91,615.27 169.20,615.85 167.73,616.10" speed="5.56"/>
   </edge>
   <edge function="internal" id=":1137585359_12">
      <lane allow="delivery bicycle pedestrian" id=":1137585359_12_0" index="0" length="5.10" shape="169.49,620.24 169.83,618.92 169.64,617.79 168.95,616.85 167.73,616.10" speed="6.95"/>
   </edge>
   <edge function="internal" id=":1137585359_13">
      <lane disallow="tram rail_urban rail rail_electric ship" id=":1137585359_13_0" index="0" length="9.51" shape="169.49,620.24 173.16,611.47" speed="8.33"/>
   </edge>
   <edge function="internal" id=":1137585359_14">
      <lane allow="delivery bicycle pedestrian" id=":1137585359_14_0" index="0" length="5.22" shape="169.49,620.24 170.93,617.85 172.81,616.48 172.91,616.46" speed="6.95"/>
   </edge>
   <edge function="internal" id=":1137585359_15">
      <lane disallow="tram rail_urban rail rail_electric ship" id=":1137585359_15_0" index="0" length="2.41" shape="169.49,620.24 170.73,619.42 171.65,619.35" speed="8.33"/>
   </edge>
   <edge function="internal" id=":1137585359_18">
      <lane id=":1137585359_18_0" index="0" length="5.11" shape="172.91,616.46 175.14,616.12 177.92,616.77" speed="6.95"/>
   </edge>
   <edge function="internal" id=":1137585359_19">
      <lane id=":1137585359_19_0" index="0" length="2.41" shape="171.65,619.35 172.26,620.05 172.54,621.51" speed="8.33"/>
   </edge>
   <edge function="internal" id=":1137585366_0">
      <lane allow="delivery bicycle pedestrian" id=":1137585366_0_0" index="0" length="7.11" shape="133.32,319.61 126.66,317.14" speed="5.56"/>
   </edge>
   <edge function="internal" id=":1137585366_1">
      <lane allow="delivery bicycle pedestrian" id=":1137585366_1_0" index="0" length="20.99" shape="133.32,319.61 126.46,321.47 123.16,320.72 123.43,317.34 127.25,311.35" speed="5.56"/>
   </edge>
   <edge function="internal" id=":1137585366_2">
      <lane allow="delivery bicycle pedestrian" id=":1137585366_2_0" index="0" length="4.82" shape="133.32,319.61 131.88,319.26 131.20,318.63 131.31,317.71 132.18,316.51" speed="5.56"/>
   </edge>
   <edge function="internal" id=":1137585366_3">
      <lane allow="delivery bicycle pedestrian" id=":1137585366_3_0" index="0" length="8.00" shape="129.87,313.36 128.41,315.65 128.31,316.93 129.57,317.22 132.18,316.51" speed="5.56"/>
   </edge>
   <edge function="internal" id=":1137585366_4">
      <lane allow="delivery bicycle pedestrian" id=":1137585366_4_0" index="0" length="4.96" shape="129.87,313.36 126.66,317.14" speed="5.56"/>
   </edge>
   <edge function="internal" id=":1137585366_5">
      <lane allow="delivery bicycle pedestrian" id=":1137585366_5_0" index="0" length="4.82" shape="129.87,313.36 128.46,313.84 127.56,313.66 127.15,312.83 127.25,311.35" speed="5.56"/>
   </edge>
   <edge function="internal" id=":1137585366_6">
      <lane allow="delivery bicycle pedestrian" id=":1137585366_6_0" index="0" length="5.06" shape="123.98,315.21 127.25,311.35" speed="5.56"/>
   </edge>
   <edge function="internal" id=":1137585366_7">
      <lane allow="delivery bicycle pedestrian" id=":1137585366_7_0" index="0" length="8.31" shape="123.98,315.21 132.18,316.51" speed="5.56"/>
   </edge>
   <edge function="internal" id=":1137585366_8">
      <lane allow="delivery bicycle pedestrian" id=":1137585366_8_0" index="0" length="4.82" shape="123.98,315.21 125.37,314.69 126.28,314.83 126.71,315.65 126.66,317.14" speed="5.56"/>
   </edge>
   <edge function="internal" id=":1137585370_0">
      <lane allow="delivery bicycle pedestrian" id=":1137585370_0_0" index="0" length="16.65" shape="305.49,191.77 300.72,187.68 296.76,185.16 293.63,184.24 291.32,184.89" speed="5.56"/>
   </edge>
   <edge function="internal" id=":1137585370_1">
      <lane allow="delivery bicycle pedestrian" id=":1137585370_1_0" index="0" length="21.45" shape="305.49,191.77 302.00,188.54 297.53,184.57 292.96,180.74 289.13,177.93" speed="5.56"/>
   </edge>
   <edge function="internal" id=":1137585370_2">
      <lane allow="delivery bicycle pedestrian" id=":1137585370_2_0" index="0" length="21.45" shape="305.49,191.77 300.37,186.11 297.90,181.25 298.06,177.19 300.87,173.93" speed="5.56"/>
   </edge>
   <edge function="internal" id=":1137585370_3">
      <lane allow="delivery bicycle pedestrian" id=":1137585370_3_0" index="0" length="25.54" shape="305.49,191.77 299.53,185.30 298.49,181.75 302.38,181.13 311.19,183.43" speed="5.56"/>
   </edge>
   <edge function="internal" id=":1137585370_4">
      <lane allow="delivery bicycle pedestrian" id=":1137585370_4_0" index="0" length="12.40" shape="305.49,191.77 301.72,191.12 299.89,189.60 300.00,187.23 302.06,184.00" speed="5.56"/>
   </edge>
   <edge function="internal" id=":1137585370_5">
      <lane allow="delivery bicycle pedestrian" id=":1137585370_5_0" index="0" length="8.48" shape="310.14,186.56 306.52,185.36 303.96,184.53 302.48,184.08 302.06,184.00" speed="5.56"/>
   </edge>
   <edge function="internal" id=":1137585370_6">
      <lane allow="delivery bicycle pedestrian" id=":1137585370_6_0" index="0" length="19.39" shape="310.14,186.56 303.49,184.63 298.13,183.70 294.08,183.79 291.32,184.89" speed="5.56"/>
   </edge>
   <edge function="internal" id=":1137585370_7">
      <lane allow="delivery bicycle pedestrian" id=":1137585370_7_0" index="0" length="22.74" shape="310.14,186.56 305.45,184.92 299.44,182.65 293.53,180.18 289.13,177.93" speed="5.56"/>
   </edge>
   <edge function="internal" id=":1137585370_8">
      <lane allow="delivery bicycle pedestrian" id=":1137585370_8_0" index="0" length="20.84" shape="310.14,186.56 302.60,183.44 298.54,180.30 297.96,177.13 300.87,173.93" speed="5.56"/>
   </edge>
   <edge function="internal" id=":1137585370_9">
      <lane allow="delivery bicycle pedestrian" id=":1137585370_9_0" index="0" length="4.82" shape="310.14,186.56 309.23,185.38 309.10,184.47 309.75,183.82 311.19,183.43" speed="5.56"/>
   </edge>
   <edge function="internal" id=":1137585370_10">
      <lane allow="delivery bicycle pedestrian" id=":1137585370_10_0" index="0" length="12.75" shape="302.74,176.64 301.82,178.07 302.92,179.68 306.05,181.46 311.19,183.43" speed="5.56"/>
   </edge>
   <edge function="internal" id=":1137585370_11">
      <lane allow="delivery bicycle pedestrian" id=":1137585370_11_0" index="0" length="8.90" shape="302.74,176.64 300.86,178.38 300.12,180.18 300.52,182.05 302.06,184.00" speed="5.56"/>
   </edge>
   <edge function="internal" id=":1137585370_12">
      <lane allow="delivery bicycle pedestrian" id=":1137585370_12_0" index="0" length="14.09" shape="302.74,176.64 299.78,178.71 296.98,180.70 294.20,182.72 291.32,184.89" speed="5.56"/>
   </edge>
   <edge function="internal" id=":1137585370_13">
      <lane allow="delivery bicycle pedestrian" id=":1137585370_13_0" index="0" length="14.54" shape="302.74,176.64 299.09,178.66 295.60,179.55 292.29,179.31 289.13,177.93" speed="5.56"/>
   </edge>
   <edge function="internal" id=":1137585370_14">
      <lane allow="delivery bicycle pedestrian" id=":1137585370_14_0" index="0" length="4.82" shape="302.74,176.64 301.26,176.67 300.45,176.23 300.32,175.31 300.87,173.93" speed="5.56"/>
   </edge>
   <edge function="internal" id=":1137585370_15">
      <lane allow="delivery bicycle pedestrian" id=":1137585370_15_0" index="0" length="10.67" shape="290.90,175.14 293.13,176.08 295.54,176.20 298.12,175.48 300.87,173.93" speed="5.56"/>
   </edge>
   <edge function="internal" id=":1137585370_16">
      <lane allow="delivery bicycle pedestrian" id=":1137585370_16_0" index="0" length="21.95" shape="290.90,175.14 295.18,177.34 300.85,179.69 306.61,181.84 311.19,183.43" speed="5.56"/>
   </edge>
   <edge function="internal" id=":1137585370_17">
      <lane allow="delivery bicycle pedestrian" id=":1137585370_17_0" index="0" length="14.27" shape="290.90,175.14 293.91,177.17 296.70,179.29 299.37,181.55 302.06,184.00" speed="5.56"/>
   </edge>
   <edge function="internal" id=":1137585370_18">
      <lane allow="delivery bicycle pedestrian" id=":1137585370_18_0" index="0" length="12.36" shape="290.90,175.14 293.63,177.47 294.61,179.87 293.84,182.34 291.32,184.89" speed="5.56"/>
   </edge>
   <edge function="internal" id=":1137585370_19">
      <lane allow="delivery bicycle pedestrian" id=":1137585370_19_0" index="0" length="4.82" shape="290.90,175.14 291.50,176.50 291.41,177.42 290.62,177.89 289.13,177.93" speed="5.56"/>
   </edge>
   <edge function="internal" id=":1137585370_20">
      <lane allow="delivery bicycle pedestrian" id=":1137585370_20_0" index="0" length="5.50" shape="289.32,182.26 290.44,181.13 290.78,180.03 290.35,178.96 289.13,177.93" speed="5.56"/>
   </edge>
   <edge function="internal" id=":1137585370_21">
      <lane allow="delivery bicycle pedestrian" id=":1137585370_21_0" index="0" length="14.24" shape="289.32,182.26 292.22,180.08 295.04,178.03 297.89,176.01 300.87,173.93" speed="5.56"/>
   </edge>
   <edge function="internal" id=":1137585370_22">
      <lane allow="delivery bicycle pedestrian" id=":1137585370_22_0" index="0" length="22.56" shape="289.32,182.26 292.79,180.74 297.59,180.42 303.72,181.32 311.19,183.43" speed="5.56"/>
   </edge>
   <edge function="internal" id=":1137585370_23">
      <lane allow="delivery bicycle pedestrian" id=":1137585370_23_0" index="0" length="14.16" shape="289.32,182.26 292.37,180.65 295.52,180.41 298.74,181.52 302.06,184.00" speed="5.56"/>
   </edge>
   <edge function="internal" id=":1137585370_24">
      <lane allow="delivery bicycle pedestrian" id=":1137585370_24_0" index="0" length="4.82" shape="289.32,182.26 290.80,182.17 291.63,182.58 291.80,183.48 291.32,184.89" speed="5.56"/>
   </edge>
   <edge function="internal" id=":1137585372_0">
      <lane allow="delivery bicycle pedestrian" id=":1137585372_0_0" index="0" length="7.53" shape="116.79,338.18 114.86,337.72 113.12,337.92 111.58,338.78 110.24,340.30" speed="5.56"/>
   </edge>
   <edge function="internal" id=":1137585372_1">
      <lane allow="delivery bicycle pedestrian" id=":1137585372_1_0" index="0" length="11.38" shape="116.79,338.18 113.82,337.04 111.47,336.17 109.10,335.35 106.08,334.34" speed="5.56"/>
   </edge>
   <edge function="internal" id=":1137585372_2">
      <lane allow="delivery bicycle pedestrian" id=":1137585372_2_0" index="0" length="11.70" shape="116.79,338.18 113.89,336.55 112.47,334.47 112.53,331.95 114.07,329.00" speed="5.56"/>
   </edge>
   <edge function="internal" id=":1137585372_3">
      <lane allow="delivery bicycle pedestrian" id=":1137585372_3_0" index="0" length="4.82" shape="116.79,338.18 115.94,336.97 115.85,336.05 116.54,335.43 117.99,335.11" speed="5.56"/>
   </edge>
   <edge function="internal" id=":1137585372_4">
      <lane allow="delivery bicycle pedestrian" id=":1137585372_4_0" index="0" length="5.33" shape="116.75,330.92 116.05,332.27 116.02,333.42 116.67,334.36 117.99,335.11" speed="5.56"/>
   </edge>
   <edge function="internal" id=":1137585372_5">
      <lane allow="delivery bicycle pedestrian" id=":1137585372_5_0" index="0" length="11.42" shape="116.75,330.92 114.89,333.52 113.44,335.58 112.02,337.66 110.24,340.30" speed="5.56"/>
   </edge>
   <edge function="internal" id=":1137585372_6">
      <lane allow="delivery bicycle pedestrian" id=":1137585372_6_0" index="0" length="12.09" shape="116.75,330.92 114.57,333.24 112.07,334.58 109.24,334.95 106.08,334.34" speed="5.56"/>
   </edge>
   <edge function="internal" id=":1137585372_7">
      <lane allow="delivery bicycle pedestrian" id=":1137585372_7_0" index="0" length="4.82" shape="116.75,330.92 115.36,331.45 114.45,331.30 114.02,330.48 114.07,329.00" speed="5.56"/>
   </edge>
   <edge function="internal" id=":1137585372_8">
      <lane allow="delivery bicycle pedestrian" id=":1137585372_8_0" index="0" length="7.88" shape="107.11,331.21 109.18,331.60 111.02,331.37 112.65,330.50 114.07,329.00" speed="5.56"/>
   </edge>
   <edge function="internal" id=":1137585372_9">
      <lane allow="delivery bicycle pedestrian" id=":1137585372_9_0" index="0" length="11.56" shape="107.11,331.21 110.16,332.22 112.59,333.06 114.99,333.95 117.99,335.11" speed="5.56"/>
   </edge>
   <edge function="internal" id=":1137585372_10">
      <lane allow="delivery bicycle pedestrian" id=":1137585372_10_0" index="0" length="11.82" shape="107.11,331.21 110.14,332.71 111.67,334.72 111.71,337.26 110.24,340.30" speed="5.56"/>
   </edge>
   <edge function="internal" id=":1137585372_11">
      <lane allow="delivery bicycle pedestrian" id=":1137585372_11_0" index="0" length="4.82" shape="107.11,331.21 108.03,332.38 108.16,333.29 107.51,333.94 106.08,334.34" speed="5.56"/>
   </edge>
   <edge function="internal" id=":1137585372_12">
      <lane allow="delivery bicycle pedestrian" id=":1137585372_12_0" index="0" length="5.36" shape="107.50,338.47 108.16,337.08 108.15,335.94 107.45,335.02 106.08,334.34" speed="5.56"/>
   </edge>
   <edge function="internal" id=":1137585372_13">
      <lane allow="delivery bicycle pedestrian" id=":1137585372_13_0" index="0" length="11.53" shape="107.50,338.47 109.29,335.80 110.73,333.70 112.20,331.60 114.07,329.00" speed="5.56"/>
   </edge>
   <edge function="internal" id=":1137585372_14">
      <lane allow="delivery bicycle pedestrian" id=":1137585372_14_0" index="0" length="12.04" shape="107.50,338.47 109.64,336.04 112.10,334.68 114.88,334.36 117.99,335.11" speed="5.56"/>
   </edge>
   <edge function="internal" id=":1137585372_15">
      <lane allow="delivery bicycle pedestrian" id=":1137585372_15_0" index="0" length="4.82" shape="107.50,338.47 108.87,337.90 109.79,338.01 110.24,338.82 110.24,340.30" speed="5.56"/>
   </edge>
   <edge function="internal" id=":1137585381_0">
      <lane allow="delivery bicycle pedestrian" id=":1137585381_0_0" index="0" length="5.01" shape="107.28,367.06 105.98,366.61 104.85,366.69 103.90,367.30 103.12,368.43" speed="5.56"/>
   </edge>
   <edge function="internal" id=":1137585381_1">
      <lane allow="delivery bicycle pedestrian" id=":1137585381_1_0" index="0" length="9.16" shape="107.28,367.06 105.03,365.65 103.39,364.03 102.36,362.19 101.93,360.14" speed="5.56"/>
   </edge>
   <edge function="internal" id=":1137585381_2">
      <lane allow="delivery bicycle pedestrian" id=":1137585381_2_0" index="0" length="4.82" shape="107.28,367.06 106.55,365.76 106.56,364.84 107.30,364.29 108.78,364.12" speed="5.56"/>
   </edge>
   <edge function="internal" id=":1137585381_3">
      <lane allow="delivery bicycle pedestrian" id=":1137585381_3_0" index="0" length="5.72" shape="105.23,359.96 105.50,361.12 106.18,362.21 107.28,363.20 108.78,364.12" speed="5.56"/>
   </edge>
   <edge function="internal" id=":1137585381_4">
      <lane allow="delivery bicycle pedestrian" id=":1137585381_4_0" index="0" length="8.73" shape="105.23,359.96 103.12,368.43" speed="5.56"/>
   </edge>
   <edge function="internal" id=":1137585381_5">
      <lane allow="delivery bicycle pedestrian" id=":1137585381_5_0" index="0" length="4.82" shape="105.23,359.96 104.47,361.24 103.67,361.70 102.82,361.33 101.93,360.14" speed="5.56"/>
   </edge>
   <edge function="internal" id=":1137585381_6">
      <lane allow="delivery bicycle pedestrian" id=":1137585381_6_0" index="0" length="7.05" shape="100.16,366.97 101.93,360.14" speed="5.56"/>
   </edge>
   <edge function="internal" id=":1137585381_7">
      <lane allow="delivery bicycle pedestrian" id=":1137585381_7_0" index="0" length="10.38" shape="100.16,366.97 101.78,364.62 103.75,363.36 106.09,363.20 108.78,364.12" speed="5.56"/>
   </edge>
   <edge function="internal" id=":1137585381_8">
      <lane allow="delivery bicycle pedestrian" id=":1137585381_8_0" index="0" length="4.82" shape="100.16,366.97 101.45,366.23 102.37,366.22 102.93,366.96 103.12,368.43" speed="5.56"/>
   </edge>
   <edge function="internal" id=":1137585385_0">
      <lane allow="delivery bicycle pedestrian" id=":1137585385_0_0" index="0" length="2.66" shape="466.85,65.09 466.37,64.53 465.84,64.27 465.24,64.30 464.58,64.63" speed="5.56"/>
   </edge>
   <edge function="internal" id=":1137585385_1">
      <lane allow="delivery bicycle pedestrian" id=":1137585385_1_0" index="0" length="2.20" shape="466.85,65.09 466.88,63.60 467.25,62.99" speed="5.56"/>
   </edge>
   <edge function="internal" id=":1137585385_4">
      <lane id=":1137585385_4_0" index="0" length="2.62" shape="467.25,62.99 467.36,62.81 468.28,62.72 469.64,63.33" speed="5.56"/>
   </edge>
   <edge function="internal" id=":1137585385_2">
      <lane allow="delivery bicycle pedestrian" id=":1137585385_2_0" index="0" length="8.15" shape="462.71,61.91 464.72,60.91 466.54,60.81 468.18,61.62 469.64,63.33" speed="5.56"/>
   </edge>
   <edge function="internal" id=":1137585385_3">
      <lane allow="delivery bicycle pedestrian" id=":1137585385_3_0" index="0" length="2.79" shape="462.71,61.91 464.19,61.89 465.00,62.33 465.05,62.71" speed="5.56"/>
   </edge>
   <edge function="internal" id=":1137585385_5">
      <lane id=":1137585385_5_0" index="0" length="2.03" shape="465.05,62.71 465.13,63.24 464.58,64.63" speed="5.56"/>
   </edge>
   <edge function="internal" id=":1137585391_0">
      <lane allow="delivery bicycle pedestrian" id=":1137585391_0_0" index="0" length="12.22" shape="-1.39,545.27 -1.46,541.94 -1.25,539.14 -0.60,536.44 0.69,533.40" speed="5.56"/>
   </edge>
   <edge function="internal" id=":1137585391_1">
      <lane allow="delivery bicycle pedestrian" id=":1137585391_1_0" index="0" length="13.06" shape="-1.39,545.27 -1.02,541.42 0.47,539.22 3.08,538.64 6.79,539.70" speed="5.56"/>
   </edge>
   <edge function="internal" id=":1137585391_2">
      <lane allow="delivery bicycle pedestrian" id=":1137585391_2_0" index="0" length="4.82" shape="-1.39,545.27 -0.62,544.00 0.19,543.56 1.03,543.94 1.90,545.14" speed="5.56"/>
   </edge>
   <edge function="internal" id=":1137585391_3">
      <lane allow="delivery bicycle pedestrian" id=":1137585391_3_0" index="0" length="5.68" shape="5.46,542.72 3.85,542.26 2.72,542.51 2.07,543.47 1.90,545.14" speed="5.56"/>
   </edge>
   <edge function="internal" id=":1137585391_4">
      <lane allow="delivery bicycle pedestrian" id=":1137585391_4_0" index="0" length="12.01" shape="5.46,542.72 2.27,540.87 0.42,538.70 -0.11,536.21 0.69,533.40" speed="5.56"/>
   </edge>
   <edge function="internal" id=":1137585391_5">
      <lane allow="delivery bicycle pedestrian" id=":1137585391_5_0" index="0" length="4.82" shape="5.46,542.72 4.66,541.47 4.62,540.55 5.33,539.96 6.79,539.70" speed="5.56"/>
   </edge>
   <edge function="internal" id=":1137585391_6">
      <lane allow="delivery bicycle pedestrian" id=":1137585391_6_0" index="0" length="6.55" shape="3.65,534.86 3.32,536.23 3.73,537.49 4.89,538.65 6.79,539.70" speed="5.56"/>
   </edge>
   <edge function="internal" id=":1137585391_7">
      <lane allow="delivery bicycle pedestrian" id=":1137585391_7_0" index="0" length="10.62" shape="3.65,534.86 2.41,537.65 1.87,539.81 1.78,542.06 1.90,545.14" speed="5.56"/>
   </edge>
   <edge function="internal" id=":1137585391_8">
      <lane allow="delivery bicycle pedestrian" id=":1137585391_8_0" index="0" length="4.82" shape="3.65,534.86 2.36,535.60 1.44,535.61 0.88,534.87 0.69,533.40" speed="5.56"/>
   </edge>
   <edge function="internal" id=":1137585397_0">
      <lane allow="delivery bicycle pedestrian" id=":1137585397_0_0" index="0" length="9.51" shape="17.69,548.10 8.99,544.27" speed="5.56"/>
   </edge>
   <edge function="internal" id=":1137585397_1">
      <lane allow="delivery bicycle pedestrian" id=":1137585397_1_0" index="0" length="10.56" shape="17.69,548.10 15.22,546.56 13.87,544.61 13.66,542.26 14.57,539.49" speed="5.56"/>
   </edge>
   <edge function="internal" id=":1137585397_2">
      <lane allow="delivery bicycle pedestrian" id=":1137585397_2_0" index="0" length="4.82" shape="17.69,548.10 16.89,546.85 16.84,545.93 17.55,545.34 19.02,545.08" speed="5.56"/>
   </edge>
   <edge function="internal" id=":1137585397_3">
      <lane allow="delivery bicycle pedestrian" id=":1137585397_3_0" index="0" length="5.06" shape="17.52,540.96 17.09,542.28 17.19,543.41 17.83,544.34 19.02,545.08" speed="5.56"/>
   </edge>
   <edge function="internal" id=":1137585397_4">
      <lane allow="delivery bicycle pedestrian" id=":1137585397_4_0" index="0" length="10.34" shape="17.52,540.96 15.91,543.34 13.95,544.69 11.64,545.00 8.99,544.27" speed="5.56"/>
   </edge>
   <edge function="internal" id=":1137585397_5">
      <lane allow="delivery bicycle pedestrian" id=":1137585397_5_0" index="0" length="4.82" shape="17.52,540.96 16.23,541.70 15.31,541.70 14.76,540.97 14.57,539.49" speed="5.56"/>
   </edge>
   <edge function="internal" id=":1137585397_6">
      <lane allow="delivery bicycle pedestrian" id=":1137585397_6_0" index="0" length="5.19" shape="10.32,541.25 11.62,541.60 12.76,541.42 13.75,540.72 14.57,539.49" speed="5.56"/>
   </edge>
   <edge function="internal" id=":1137585397_7">
      <lane allow="delivery bicycle pedestrian" id=":1137585397_7_0" index="0" length="9.51" shape="10.32,541.25 19.02,545.08" speed="5.56"/>
   </edge>
   <edge function="internal" id=":1137585397_8">
      <lane allow="delivery bicycle pedestrian" id=":1137585397_8_0" index="0" length="4.82" shape="10.32,541.25 11.12,542.51 11.16,543.43 10.45,544.02 8.99,544.27" speed="5.56"/>
   </edge>
   <edge function="internal" id=":1346891994_0">