<?xml version="1.0" encoding="utf-8"?><!-- generated on 10/11/17 17:54:49 by SUMO netconvert Version 0.25.0
<?xml version="1.0" encoding="UTF-8"?>

<configuration xmlns:xsi="http://www.w3.org/2001/XMLSchema-instance" xsi:noNamespaceSchemaLocation="http://sumo.dlr.de/xsd/netconvertConfiguration.xsd">

    <input>
        <type-files value="osmNetconvert.typ.xml"/>
        <osm-files value="IN_ManchStr_industrial_800.osm"/>
    </input>

    <output>
        <output-file value="IN_ManchStr_industrial_800.net.xml"/>
    </output>

    <projection>
        <proj.utm value="true"/>
    </projection>

    <edge_removal>
        <remove-edges.by-type value="highway.track,highway.unsurfaced,highway.raceway,highway.bridleway,highway.path,highway.footway,highway.pedestrian,highway.cycleway,highway.step,highway.steps,highway.stairs,highway.bus_guideway,highway.ford,railway.rail,railway.tram,railway.light_rail,railway.subway,railway.preserved,railway.narrow_gauge,railway.monorail,railway.funicular"/>
    </edge_removal>

</configuration>
-->
<net version="0.25">
   <location convBoundary="0.00,0.00,785.45,797.18" netOffset="-681207.65,-5401456.28" origBoundary="11.465005,48.739641,11.475871,48.746793" projParameter="+proj=utm +zone=32 +ellps=WGS84 +datum=WGS84 +units=m +no_defs"/>
   <type allow="pedestrian" id="highway.bridleway" numLanes="1" oneway="1" priority="1" speed="2.78" width="2.00"/>
   <type allow="bus" id="highway.bus_guideway" numLanes="1" oneway="1" priority="1" speed="8.33"/>
   <type allow="bicycle" id="highway.cycleway" numLanes="1" oneway="0" priority="1" speed="5.56" width="1.00"/>
   <type allow="pedestrian" id="highway.footway" numLanes="1" oneway="1" priority="1" speed="8.33" width="2.00"/>
   <type allow="army" id="highway.ford" numLanes="1" oneway="0" priority="1" speed="2.78"/>
   <type disallow="tram rail_urban rail rail_electric ship" id="highway.living_street" numLanes="1" oneway="0" priority="3" speed="2.78"/>
   <type allow="private emergency authority army vip passenger hov taxi bus coach delivery truck trailer motorcycle evehicle custom1 custom2" id="highway.motorway" numLanes="2" oneway="1" priority="13" speed="44.44"/>
   <type allow="private emergency authority army vip passenger hov taxi bus coach delivery truck trailer motorcycle evehicle custom1 custom2" id="highway.motorway_link" numLanes="1" oneway="1" priority="12" speed="22.22"/>
   <type allow="bicycle pedestrian" id="highway.path" numLanes="1" oneway="1" priority="1" speed="2.78" width="2.00"/>
   <type allow="pedestrian" id="highway.pedestrian" numLanes="1" oneway="1" priority="1" speed="8.33" width="2.00"/>
   <type disallow="tram rail_urban rail rail_electric ship" id="highway.primary" numLanes="2" oneway="0" priority="9" speed="27.78"/>
   <type disallow="tram rail_urban rail rail_electric ship" id="highway.primary_link" numLanes="1" oneway="0" priority="8" speed="22.22"/>
   <type allow="vip" id="highway.raceway" numLanes="2" oneway="0" priority="14" speed="83.33"/>
   <type disallow="tram rail_urban rail rail_electric ship" id="highway.residential" numLanes="1" oneway="0" priority="4" speed="13.89"/>
   <type disallow="tram rail_urban rail rail_electric ship" id="highway.secondary" numLanes="2" oneway="0" priority="7" speed="27.78"/>
   <type disallow="tram rail_urban rail rail_electric ship" id="highway.secondary_link" numLanes="1" oneway="0" priority="6" speed="22.22"/>
   <type allow="delivery bicycle pedestrian" id="highway.service" numLanes="1" oneway="0" priority="2" speed="5.56"/>
   <type disallow="tram rail_urban rail rail_electric ship" id="highway.services" numLanes="1" oneway="0" priority="1" speed="8.33"/>
   <type allow="pedestrian" id="highway.stairs" numLanes="1" oneway="1" priority="1" speed="1.39" width="2.00"/>
   <type allow="pedestrian" id="highway.step" numLanes="1" oneway="1" priority="1" speed="1.39" width="2.00"/>
   <type allow="pedestrian" id="highway.steps" numLanes="1" oneway="1" priority="1" speed="1.39" width="2.00"/>
   <type disallow="tram rail_urban rail rail_electric ship" id="highway.tertiary" numLanes="1" oneway="0" priority="6" speed="22.22"/>
   <type disallow="tram rail_urban rail rail_electric ship" id="highway.tertiary_link" numLanes="1" oneway="0" priority="5" speed="22.22"/>
   <type disallow="tram rail_urban rail rail_electric ship" id="highway.track" numLanes="1" oneway="0" priority="1" speed="5.56"/>
   <type disallow="tram rail_urban rail rail_electric bicycle pedestrian ship" id="highway.trunk" numLanes="2" oneway="0" priority="11" speed="27.78"/>
   <type disallow="tram rail_urban rail rail_electric bicycle pedestrian ship" id="highway.trunk_link" numLanes="1" oneway="0" priority="10" speed="22.22"/>
   <type disallow="tram rail_urban rail rail_electric ship" id="highway.unclassified" numLanes="1" oneway="0" priority="5" speed="13.89"/>
   <type disallow="tram rail_urban rail rail_electric ship" id="highway.unsurfaced" numLanes="1" oneway="0" priority="1" speed="8.33"/>
   <type allow="rail_urban" id="railway.light_rail" numLanes="1" oneway="1" priority="15" speed="27.78"/>
   <type allow="rail" id="railway.preserved" numLanes="1" oneway="1" priority="15" speed="27.78"/>
   <type allow="rail rail_electric" id="railway.rail" numLanes="1" oneway="1" priority="15" speed="83.33"/>
   <type allow="rail_urban" id="railway.subway" numLanes="1" oneway="1" priority="15" speed="27.78"/>
   <type allow="tram" id="railway.tram" numLanes="1" oneway="1" priority="15" speed="13.89"/>
   <edge function="internal" id=":1067415561_0">
      <lane allow="delivery bicycle pedestrian" id=":1067415561_0_0" index="0" length="4.88" shape="611.78,656.94 610.77,656.20 609.69,655.89 608.53,656.00 607.31,656.53" speed="9.73"/>
   </edge>
   <edge function="internal" id=":1067415561_1">
      <lane disallow="tram rail_urban rail rail_electric ship" id=":1067415561_1_0" index="0" length="8.72" shape="611.78,656.94 607.08,649.60" speed="13.89"/>
   </edge>
   <edge function="internal" id=":1067415561_2">
      <lane disallow="tram rail_urban rail rail_electric ship" id=":1067415561_2_0" index="0" length="2.80" shape="611.78,656.94 611.47,655.49 611.75,654.61 612.12,654.48" speed="13.89"/>
   </edge>
   <edge function="internal" id=":1067415561_9">
      <lane id=":1067415561_9_0" index="0" length="2.02" shape="612.12,654.48 612.62,654.31 614.08,654.58" speed="13.89"/>
   </edge>
   <edge function="internal" id=":1067415561_3">
      <lane disallow="tram rail_urban rail rail_electric ship" id=":1067415561_3_0" index="0" length="7.26" shape="610.18,648.46 614.08,654.58" speed="13.89"/>
   </edge>
   <edge function="internal" id=":1067415561_4">
      <lane allow="delivery bicycle pedestrian" id=":1067415561_4_0" index="0" length="3.68" shape="610.18,648.46 610.72,650.93 610.56,652.07" speed="9.73"/>
   </edge>
   <edge function="internal" id=":1067415561_5">
      <lane disallow="tram rail_urban rail rail_electric ship" id=":1067415561_5_0" index="0" length="2.05" shape="610.18,648.46 609.83,649.91 609.44,650.32" speed="13.89"/>
   </edge>
   <edge function="internal" id=":1067415561_10">
      <lane id=":1067415561_10_0" index="0" length="5.74" shape="610.56,652.07 610.42,653.10 609.28,654.97 607.31,656.53" speed="9.73"/>
   </edge>
   <edge function="internal" id=":1067415561_11">
      <lane id=":1067415561_11_0" index="0" length="2.77" shape="609.44,650.32 609.20,650.58 608.28,650.48 607.08,649.60" speed="13.89"/>
   </edge>
   <edge function="internal" id=":1067415561_6">
      <lane disallow="tram rail_urban rail rail_electric ship" id=":1067415561_6_0" index="0" length="5.00" shape="605.55,653.49 606.70,653.10 607.34,652.32 607.47,651.16 607.08,649.60" speed="9.73"/>
   </edge>
   <edge function="internal" id=":1067415561_7">
      <lane disallow="tram rail_urban rail rail_electric ship" id=":1067415561_7_0" index="0" length="8.83" shape="605.55,653.49 608.52,653.22 610.93,653.31 612.78,653.77 614.08,654.58" speed="9.73"/>
   </edge>
   <edge function="internal" id=":1067415561_8">
      <lane allow="delivery bicycle pedestrian" id=":1067415561_8_0" index="0" length="5.13" shape="605.55,653.49 607.13,653.59 607.95,654.13 608.01,655.11 607.31,656.53" speed="5.56"/>
   </edge>
   <edge function="internal" id=":1067415570_0">
      <lane allow="delivery bicycle pedestrian" id=":1067415570_0_0" index="0" length="9.60" shape="605.68,656.81 598.40,663.07" speed="5.56"/>
   </edge>
   <edge function="internal" id=":1067415570_1">
      <lane allow="delivery bicycle pedestrian" id=":1067415570_1_0" index="0" length="11.70" shape="605.68,656.81 602.47,657.20 599.86,657.34 597.25,657.24 594.03,656.91" speed="5.56"/>
   </edge>
   <edge function="internal" id=":1067415570_2">
      <lane allow="delivery bicycle pedestrian" id=":1067415570_2_0" index="0" length="4.82" shape="605.68,656.81 604.34,656.16 603.82,655.40 604.11,654.53 605.22,653.54" speed="5.56"/>
   </edge>
   <edge function="internal" id=":1067415570_3">
      <lane allow="delivery bicycle pedestrian" id=":1067415570_3_0" index="0" length="11.60" shape="593.68,653.54 596.88,653.89 599.45,654.02 602.03,653.91 605.22,653.54" speed="5.56"/>
   </edge>
   <edge function="internal" id=":1067415570_4">
      <lane allow="delivery bicycle pedestrian" id=":1067415570_4_0" index="0" length="15.03" shape="593.68,653.54 598.38,654.67 600.74,656.64 600.75,659.44 598.40,663.07" speed="5.56"/>
   </edge>
   <edge function="internal" id=":1067415570_5">
      <lane allow="delivery bicycle pedestrian" id=":1067415570_5_0" index="0" length="4.94" shape="593.68,653.54 595.03,654.25 595.54,655.05 595.20,655.93 594.03,656.91" speed="5.56"/>
   </edge>
   <edge function="internal" id=":1067415570_6">
      <lane allow="delivery bicycle pedestrian" id=":1067415570_6_0" index="0" length="6.25" shape="595.91,660.90 596.90,659.38 596.92,658.20 595.96,657.38 594.03,656.91" speed="5.56"/>
   </edge>
   <edge function="internal" id=":1067415570_7">
      <lane allow="delivery bicycle pedestrian" id=":1067415570_7_0" index="0" length="12.24" shape="595.91,660.90 598.05,658.26 599.94,656.07 602.14,654.45 605.22,653.54" speed="5.56"/>
   </edge>
   <edge function="internal" id=":1067415570_8">
      <lane allow="delivery bicycle pedestrian" id=":1067415570_8_0" index="0" length="4.82" shape="595.91,660.90 597.35,660.51 598.24,660.74 598.59,661.60 598.40,663.07" speed="5.56"/>
   </edge>
   <edge function="internal" id=":1067415616_0">
      <lane disallow="tram rail_urban rail rail_electric ship" id=":1067415616_0_0" index="0" length="9.81" shape="660.12,376.50 656.78,367.27" speed="13.89"/>
   </edge>
   <edge function="internal" id=":1067415616_1">
      <lane allow="delivery bicycle pedestrian" id=":1067415616_1_0" index="0" length="5.01" shape="660.12,376.50 659.61,374.00 660.09,371.70 660.15,371.61" speed="9.73"/>
   </edge>
   <edge function="internal" id=":1067415616_2">
      <lane disallow="tram rail_urban rail rail_electric ship" id=":1067415616_2_0" index="0" length="2.41" shape="660.12,376.50 660.44,375.05 661.06,374.37" speed="13.89"/>
   </edge>
   <edge function="internal" id=":1067415616_9">
      <lane id=":1067415616_9_0" index="0" length="5.58" shape="660.15,371.61 661.56,369.58 664.02,367.66" speed="9.73"/>
   </edge>
   <edge function="internal" id=":1067415616_10">
      <lane id=":1067415616_10_0" index="0" length="2.41" shape="661.06,374.37 661.98,374.46 663.20,375.32" speed="13.89"/>
   </edge>
   <edge function="internal" id=":1067415616_3">
      <lane disallow="tram rail_urban rail rail_electric ship" id=":1067415616_3_0" index="0" length="5.98" shape="665.75,370.47 664.25,371.60 663.33,372.78 662.98,374.02 663.20,375.32" speed="9.73"/>
   </edge>
   <edge function="internal" id=":1067415616_4">
      <lane disallow="tram rail_urban rail rail_electric ship" id=":1067415616_4_0" index="0" length="11.52" shape="665.75,370.47 662.76,371.77 660.27,371.68 658.27,370.18 656.78,367.27" speed="9.73"/>
   </edge>
   <edge function="internal" id=":1067415616_5">
      <lane allow="delivery bicycle pedestrian" id=":1067415616_5_0" index="0" length="4.82" shape="665.75,370.47 664.27,370.42 663.48,369.93 663.40,369.01 664.02,367.66" speed="5.56"/>
   </edge>
   <edge function="internal" id=":1067415616_6">
      <lane allow="delivery bicycle pedestrian" id=":1067415616_6_0" index="0" length="5.29" shape="659.90,366.20 660.58,367.53 661.50,368.22 662.64,368.26 664.02,367.66" speed="9.73"/>
   </edge>
   <edge function="internal" id=":1067415616_7">
      <lane disallow="tram rail_urban rail rail_electric ship" id=":1067415616_7_0" index="0" length="9.70" shape="659.90,366.20 663.20,375.32" speed="13.89"/>
   </edge>
   <edge function="internal" id=":1067415616_8">
      <lane disallow="tram rail_urban rail rail_electric ship" id=":1067415616_8_0" index="0" length="2.41" shape="659.90,366.20 659.52,367.63 658.87,368.29" speed="13.89"/>
   </edge>
   <edge function="internal" id=":1067415616_11">
      <lane id=":1067415616_11_0" index="0" length="2.41" shape="658.87,368.29 657.96,368.17 656.78,367.27" speed="13.89"/>
   </edge>
   <edge function="internal" id=":1067415644_0">
      <lane disallow="tram rail_urban rail rail_electric ship" id=":1067415644_0_0" index="0" length="9.88" shape="646.40,337.22 643.21,327.87" speed="13.89"/>
   </edge>
   <edge function="internal" id=":1067415644_1">
      <lane allow="delivery bicycle pedestrian" id=":1067415644_1_0" index="0" length="5.63" shape="646.40,337.22 645.74,333.80 646.33,331.74" speed="9.73"/>
   </edge>
   <edge function="internal" id=":1067415644_2">
      <lane disallow="tram rail_urban rail rail_electric ship" id=":1067415644_2_0" index="0" length="2.41" shape="646.40,337.22 646.78,335.78 647.42,335.12" speed="13.89"/>
   </edge>
   <edge function="internal" id=":1067415644_9">
      <lane id=":1067415644_9_0" index="0" length="6.46" shape="646.33,331.74 646.44,331.34 648.51,329.83 651.95,329.28" speed="9.73"/>
   </edge>
   <edge function="internal" id=":1067415644_10">
      <lane id=":1067415644_10_0" index="0" length="2.41" shape="647.42,335.12 648.33,335.25 649.52,336.15" speed="13.89"/>
   </edge>
   <edge function="internal" id=":1067415644_3">
      <lane disallow="tram rail_urban rail rail_electric ship" id=":1067415644_3_0" index="0" length="5.43" shape="652.01,332.58 650.47,332.83 649.54,333.50 649.22,334.61 649.52,336.15" speed="9.73"/>
   </edge>
   <edge function="internal" id=":1067415644_4">
      <lane disallow="tram rail_urban rail rail_electric ship" id=":1067415644_4_0" index="0" length="10.72" shape="652.01,332.58 648.77,332.33 646.22,331.47 644.37,329.98 643.21,327.87" speed="9.73"/>
   </edge>
   <edge function="internal" id=":1067415644_5">
      <lane allow="delivery bicycle pedestrian" id=":1067415644_5_0" index="0" length="4.82" shape="652.01,332.58 650.76,331.78 650.33,330.96 650.73,330.13 651.95,329.28" speed="5.56"/>
   </edge>
   <edge function="internal" id=":1067415644_6">
      <lane allow="delivery bicycle pedestrian" id=":1067415644_6_0" index="0" length="6.53" shape="646.34,326.83 647.01,327.93 648.17,328.71 649.82,329.16 651.95,329.28" speed="9.73"/>
   </edge>
   <edge function="internal" id=":1067415644_7">
      <lane disallow="tram rail_urban rail rail_electric ship" id=":1067415644_7_0" index="0" length="9.84" shape="646.34,326.83 649.52,336.15" speed="13.89"/>
   </edge>
   <edge function="internal" id=":1067415644_8">
      <lane disallow="tram rail_urban rail rail_electric ship" id=":1067415644_8_0" index="0" length="2.41" shape="646.34,326.83 645.95,328.26 645.30,328.92" speed="13.89"/>
   </edge>
   <edge function="internal" id=":1067415644_11">
      <lane id=":1067415644_11_0" index="0" length="2.41" shape="645.30,328.92 644.39,328.79 643.21,327.87" speed="13.89"/>
   </edge>
   <edge function="internal" id=":1067415652_0">
      <lane allow="delivery bicycle pedestrian" id=":1067415652_0_0" index="0" length="8.50" shape="590.42,656.47 588.27,655.86 586.86,654.63 586.18,652.80 586.25,650.35" speed="5.56"/>
   </edge>
   <edge function="internal" id=":1067415652_1">
      <lane allow="delivery bicycle pedestrian" id=":1067415652_1_0" index="0" length="2.79" shape="590.42,656.47 589.29,655.50 588.98,654.63 589.19,654.31" speed="5.56"/>
   </edge>
   <edge function="internal" id=":1067415652_4">
      <lane id=":1067415652_4_0" index="0" length="2.02" shape="589.19,654.31 589.49,653.86 590.82,653.19" speed="5.56"/>
   </edge>
   <edge function="internal" id=":1067415652_2">
      <lane allow="delivery bicycle pedestrian" id=":1067415652_2_0" index="0" length="2.78" shape="589.46,651.20 589.43,651.99 589.65,652.59 590.12,652.99 590.82,653.19" speed="5.56"/>
   </edge>
   <edge function="internal" id=":1067415652_3">
      <lane allow="delivery bicycle pedestrian" id=":1067415652_3_0" index="0" length="2.05" shape="589.46,651.20 588.34,652.19 587.80,652.30" speed="5.56"/>
   </edge>
   <edge function="internal" id=":1067415652_5">
      <lane id=":1067415652_5_0" index="0" length="2.80" shape="587.80,652.30 587.43,652.38 586.73,651.77 586.25,650.35" speed="5.56"/>
   </edge>
   <edge function="internal" id=":17199732_0">
      <lane disallow="tram rail_urban rail rail_electric ship" id=":17199732_0_0" index="0" length="4.82" shape="169.81,788.06 169.82,789.54 169.37,790.35 168.46,790.47 167.08,789.91" speed="13.89"/>
   </edge>
   <edge function="internal" id=":1851982702_0">
      <lane allow="delivery bicycle pedestrian" id=":1851982702_0_0" index="0" length="5.17" shape="108.64,695.76 107.71,694.65 106.68,694.16 105.55,694.30 104.32,695.05" speed="9.72"/>
   </edge>
   <edge function="internal" id=":1851982702_1">
      <lane disallow="tram rail_urban rail rail_electric ship" id=":1851982702_1_0" index="0" length="9.63" shape="108.64,695.76 103.36,687.71" speed="13.89"/>
   </edge>
   <edge function="internal" id=":1851982702_2">
      <lane disallow="tram rail_urban rail rail_electric ship" id=":1851982702_2_0" index="0" length="2.41" shape="108.64,695.76 108.69,694.27 109.18,693.49" speed="13.89"/>
   </edge>
   <edge function="internal" id=":1851982702_9">
      <lane id=":1851982702_9_0" index="0" length="2.41" shape="109.18,693.49 110.09,693.40 111.45,694.02" speed="13.89"/>
   </edge>
   <edge function="internal" id=":1851982702_3">
      <lane disallow="tram rail_urban rail rail_electric ship" id=":1851982702_3_0" index="0" length="9.81" shape="106.07,685.82 111.45,694.02" speed="13.89"/>
   </edge>
   <edge function="internal" id=":1851982702_4">
      <lane allow="delivery bicycle pedestrian" id=":1851982702_4_0" index="0" length="5.24" shape="106.07,685.82 107.25,688.24 107.36,690.59 107.28,690.76" speed="9.72"/>
   </edge>
   <edge function="internal" id=":1851982702_5">
      <lane disallow="tram rail_urban rail rail_electric ship" id=":1851982702_5_0" index="0" length="2.52" shape="106.07,685.82 106.10,687.30 105.66,688.11 105.55,688.13" speed="13.89"/>
   </edge>
   <edge function="internal" id=":1851982702_10">
      <lane id=":1851982702_10_0" index="0" length="5.29" shape="107.28,690.76 106.38,692.86 104.32,695.05" speed="9.72"/>
   </edge>
   <edge function="internal" id=":1851982702_11">
      <lane id=":1851982702_11_0" index="0" length="2.30" shape="105.55,688.13 104.75,688.25 103.36,687.71" speed="13.89"/>
   </edge>
   <edge function="internal" id=":1851982702_6">
      <lane disallow="tram rail_urban rail rail_electric ship" id=":1851982702_6_0" index="0" length="5.51" shape="102.21,692.50 103.36,691.32 103.93,690.13 103.93,688.92 103.36,687.71" speed="9.72"/>
   </edge>
   <edge function="internal" id=":1851982702_7">
      <lane disallow="tram rail_urban rail rail_electric ship" id=":1851982702_7_0" index="0" length="11.03" shape="102.21,692.50 104.85,690.90 107.27,690.62 109.47,691.66 111.45,694.02" speed="9.72"/>
   </edge>
   <edge function="internal" id=":1851982702_8">
      <lane allow="delivery bicycle pedestrian" id=":1851982702_8_0" index="0" length="4.82" shape="102.21,692.50 103.69,692.35 104.54,692.72 104.74,693.62 104.32,695.05" speed="5.56"/>
   </edge>
   <edge function="internal" id=":2113717458_0">
      <lane disallow="tram rail_urban rail rail_electric ship" id=":2113717458_0_0" index="0" length="4.82" shape="366.74,-0.83 368.07,-1.48 368.99,-1.43 369.50,-0.66 369.60,0.83" speed="13.89"/>
   </edge>
   <edge function="internal" id=":2113717461_0">
      <lane disallow="tram rail_urban rail rail_electric ship" id=":2113717461_0_0" index="0" length="4.82" shape="566.26,51.31 566.76,49.91 567.45,49.31 568.36,49.50 569.46,50.50" speed="13.89"/>
   </edge>
   <edge function="internal" id=":2119320674_0">
      <lane disallow="tram rail_urban rail rail_electric ship" id=":2119320674_0_0" index="0" length="0.29" shape="170.92,754.31 170.81,754.40" speed="13.89"/>
      <lane disallow="tram rail_urban rail rail_electric ship" id=":2119320674_0_1" index="1" length="0.29" shape="169.05,751.59 168.70,751.86" speed="13.89"/>
   </edge>
   <edge function="internal" id=":2119320674_2">
      <lane disallow="tram rail_urban rail rail_electric ship" id=":2119320674_2_0" index="0" length="2.41" shape="169.05,751.59 167.56,751.62 166.75,751.17" speed="13.89"/>
   </edge>
   <edge function="internal" id=":2119320674_7">
      <lane id=":2119320674_7_0" index="0" length="2.41" shape="166.75,751.17 166.62,750.26 167.17,748.88" speed="13.89"/>
   </edge>
   <edge function="internal" id=":2119320674_3">
      <lane disallow="tram rail_urban rail rail_electric ship" id=":2119320674_3_0" index="0" length="1.03" shape="162.37,744.25 163.42,743.44" speed="13.89"/>
      <lane disallow="tram rail_urban rail rail_electric ship" id=":2119320674_3_1" index="1" length="1.03" shape="164.48,746.78 165.30,746.16" speed="13.89"/>
      <lane disallow="tram rail_urban rail rail_electric ship" id=":2119320674_3_2" index="2" length="1.03" shape="166.59,749.32 167.17,748.88" speed="13.89"/>
   </edge>
   <edge function="internal" id=":2119320674_6">
      <lane disallow="tram rail_urban rail rail_electric ship" id=":2119320674_6_0" index="0" length="2.41" shape="166.59,749.32 168.07,749.16 168.91,749.53" speed="13.89"/>
   </edge>
   <edge function="internal" id=":2119320674_8">
      <lane id=":2119320674_8_0" index="0" length="2.41" shape="168.91,749.53 169.12,750.43 168.70,751.86" speed="13.89"/>
   </edge>
   <edge function="internal" id=":2119320675_0">
      <lane disallow="tram rail_urban rail rail_electric ship" id=":2119320675_0_0" index="0" length="0.10" shape="141.66,749.10 141.67,749.11" speed="13.89"/>
   </edge>
   <edge function="internal" id=":2119320675_1">
      <lane disallow="tram rail_urban rail rail_electric ship" id=":2119320675_1_0" index="0" length="2.41" shape="141.66,749.10 141.73,747.61 142.22,746.83" speed="13.89"/>
   </edge>
   <edge function="internal" id=":2119320675_4">
      <lane id=":2119320675_4_0" index="0" length="2.41" shape="142.22,746.83 143.14,746.76 144.49,747.39" speed="13.89"/>
   </edge>
   <edge function="internal" id=":2119320675_2">
      <lane disallow="tram rail_urban rail rail_electric ship" id=":2119320675_2_0" index="0" length="0.10" shape="144.48,747.38 144.49,747.39" speed="13.89"/>
   </edge>
   <edge function="internal" id=":2119320675_3">
      <lane disallow="tram rail_urban rail rail_electric ship" id=":2119320675_3_0" index="0" length="2.41" shape="144.48,747.38 144.43,748.87 143.94,749.65" speed="13.89"/>
   </edge>
   <edge function="internal" id=":2119320675_5">
      <lane id=":2119320675_5_0" index="0" length="2.41" shape="143.94,749.65 143.02,749.73 141.67,749.11" speed="13.89"/>
   </edge>
   <edge function="internal" id=":2119320676_0">
      <lane disallow="tram rail_urban rail rail_electric ship" id=":2119320676_0_0" index="0" length="0.50" shape="158.42,783.05 158.11,782.56" speed="13.89"/>
      <lane disallow="tram rail_urban rail rail_electric ship" id=":2119320676_0_1" index="1" length="0.50" shape="161.15,781.20 160.93,780.85" speed="13.89"/>
   </edge>
   <edge function="internal" id=":2119320676_2">
      <lane disallow="tram rail_urban rail rail_electric ship" id=":2119320676_2_0" index="0" length="2.41" shape="161.15,781.20 161.14,779.71 161.59,778.91" speed="13.89"/>
   </edge>
   <edge function="internal" id=":2119320676_6">
      <lane id=":2119320676_6_0" index="0" length="2.41" shape="161.59,778.91 162.50,778.78 163.88,779.34" speed="13.89"/>
   </edge>
   <edge function="internal" id=":2119320676_3">
      <lane disallow="tram rail_urban rail rail_electric ship" id=":2119320676_3_0" index="0" length="0.17" shape="166.57,777.42 166.61,777.49" speed="13.89"/>
      <lane disallow="tram rail_urban rail rail_electric ship" id=":2119320676_3_1" index="1" length="0.17" shape="163.75,779.13 163.88,779.34" speed="13.89"/>
   </edge>
   <edge function="internal" id=":2119320676_5">
      <lane disallow="tram rail_urban rail rail_electric ship" id=":2119320676_5_0" index="0" length="2.41" shape="163.75,779.13 163.68,780.62 163.19,781.40" speed="13.89"/>
   </edge>
   <edge function="internal" id=":2119320676_7">
      <lane id=":2119320676_7_0" index="0" length="2.41" shape="163.19,781.40 162.27,781.48 160.93,780.85" speed="13.89"/>
   </edge>
   <edge function="internal" id=":2380047073_0">
      <lane allow="delivery bicycle pedestrian" id=":2380047073_0_0" index="0" length="4.82" shape="3.27,615.10 1.85,615.53 0.95,615.33 0.58,614.48 0.72,613.00" speed="5.56"/>
   </edge>
   <edge function="internal" id=":2380047077_0">
      <lane allow="delivery bicycle pedestrian" id=":2380047077_0_0" index="0" length="4.82" shape="-1.10,597.91 -1.47,596.47 -1.23,595.58 -0.38,595.24 1.10,595.44" speed="5.56"/>
   </edge>
   <edge function="internal" id=":241292432_0">
      <lane disallow="tram rail_urban rail rail_electric ship" id=":241292432_0_0" index="0" length="9.17" shape="25.29,599.50 18.56,593.28" speed="13.89"/>
   </edge>
   <edge function="internal" id=":241292432_1">
      <lane disallow="tram rail_urban rail rail_electric ship" id=":241292432_1_0" index="0" length="5.03" shape="25.29,599.50 23.65,597.32 23.07,595.10" speed="13.89"/>
   </edge>
   <edge function="internal" id=":241292432_2">
      <lane disallow="tram rail_urban rail rail_electric ship" id=":241292432_2_0" index="0" length="2.41" shape="25.29,599.50 24.99,598.04 25.28,597.17" speed="13.89"/>
   </edge>
   <edge function="internal" id=":241292432_9">
      <lane id=":241292432_9_0" index="0" length="5.13" shape="23.07,595.10 23.55,592.81 25.08,590.48" speed="13.89"/>
   </edge>
   <edge function="internal" id=":241292432_10">
      <lane id=":241292432_10_0" index="0" length="2.41" shape="25.28,597.17 26.15,596.87 27.61,597.15" speed="13.89"/>
   </edge>
   <edge function="internal" id=":241292432_3">
      <lane disallow="tram rail_urban rail rail_electric ship" id=":241292432_3_0" index="0" length="5.07" shape="27.57,592.65 26.79,593.83 26.53,594.97 26.81,596.08 27.61,597.15" speed="13.89"/>
   </edge>
   <edge function="internal" id=":241292432_4">
      <lane disallow="tram rail_urban rail rail_electric ship" id=":241292432_4_0" index="0" length="10.29" shape="27.57,592.65 25.43,594.49 23.22,595.20 20.93,594.80 18.56,593.28" speed="13.89"/>
   </edge>
   <edge function="internal" id=":241292432_5">
      <lane disallow="tram rail_urban rail rail_electric ship" id=":241292432_5_0" index="0" length="4.82" shape="27.57,592.65 26.13,593.04 25.24,592.81 24.89,591.95 25.08,590.48" speed="13.89"/>
   </edge>
   <edge function="internal" id=":241292432_6">
      <lane disallow="tram rail_urban rail rail_electric ship" id=":241292432_6_0" index="0" length="4.99" shape="20.71,590.78 21.86,591.52 22.97,591.72 24.05,591.37 25.08,590.48" speed="13.89"/>
   </edge>
   <edge function="internal" id=":241292432_7">
      <lane disallow="tram rail_urban rail rail_electric ship" id=":241292432_7_0" index="0" length="9.39" shape="20.71,590.78 27.61,597.15" speed="13.89"/>
   </edge>
   <edge function="internal" id=":241292432_8">
      <lane disallow="tram rail_urban rail rail_electric ship" id=":241292432_8_0" index="0" length="2.52" shape="20.71,590.78 21.11,592.22 20.88,593.11 20.78,593.16" speed="13.89"/>
   </edge>
   <edge function="internal" id=":241292432_11">
      <lane id=":241292432_11_0" index="0" length="2.29" shape="20.78,593.16 20.03,593.47 18.56,593.28" speed="13.89"/>
   </edge>
   <edge function="internal" id=":241292443_0">
      <lane disallow="tram rail_urban rail rail_electric ship" id=":241292443_0_0" index="0" length="5.18" shape="127.81,518.81 126.52,518.16 125.38,518.11 124.40,518.68 123.56,519.86" speed="9.72"/>
   </edge>
   <edge function="internal" id=":241292443_1">
      <lane disallow="tram rail_urban rail rail_electric ship" id=":241292443_1_0" index="0" length="9.30" shape="127.81,518.81 125.64,517.04 124.06,515.22 123.08,513.34 122.70,511.41" speed="9.72"/>
   </edge>
   <edge function="internal" id=":241292443_2">
      <lane allow="delivery bicycle pedestrian" id=":241292443_2_0" index="0" length="4.82" shape="127.81,518.81 127.28,517.43 127.42,516.52 128.23,516.08 129.72,516.12" speed="5.56"/>
   </edge>
   <edge function="internal" id=":241292443_3">
      <lane allow="delivery bicycle pedestrian" id=":241292443_3_0" index="0" length="6.29" shape="126.00,511.28 126.27,512.44 126.98,513.63 128.13,514.86 129.72,516.12" speed="9.72"/>
   </edge>
   <edge function="internal" id=":241292443_4">
      <lane disallow="tram rail_urban rail rail_electric ship" id=":241292443_4_0" index="0" length="8.93" shape="126.00,511.28 123.56,519.86" speed="13.89"/>
   </edge>
   <edge function="internal" id=":241292443_5">
      <lane disallow="tram rail_urban rail rail_electric ship" id=":241292443_5_0" index="0" length="2.91" shape="126.00,511.28 125.23,512.55 124.42,512.99 123.96,512.79" speed="13.89"/>
   </edge>
   <edge function="internal" id=":241292443_9">