<?xml version="1.0" encoding="utf-8"?><!-- generated on 10/11/17 17:54:53 by SUMO polyconvert Version 0.25.0
<?xml version="1.0" encoding="UTF-8"?>

<configuration xmlns:xsi="http://www.w3.org/2001/XMLSchema-instance" xsi:noNamespaceSchemaLocation="http://sumo.dlr.de/xsd/polyconvertConfiguration.xsd">

    <input>
        <net-file value="IN_ManchStr_industrial_800.net.xml"/>
        <osm-files value="IN_ManchStr_industrial_800.osm"/>
        <type-file value="osmPolyconvert.typ.xml"/>
    </input>

    <output>
        <output-file value="IN_ManchStr_industrial_800.poly.xml"/>
    </output>

    <projection>
        <proj.utm value="true"/>
    </projection>

    <processing>
        <poi-layer-offset value="5"/>
    </processing>

</configuration>
-->
<additional>
   <location convBoundary="-4.95,-8.60,817.66,801.57" netOffset="-681207.65,-5401456.28" origBoundary="11.465001,48.739574,11.475910,48.746793" projParameter="+proj=utm +zone=32 +ellps=WGS84 +datum=WGS84 +units=m +no_defs"/>
   <poly color="red" fill="1" id="220023514" layer="-1.00" shape="325.36,786.33 345.31,772.38 328.49,747.82 309.95,761.36 325.36,786.33" type="building"/>
   <poly color="237,199,255" fill="1" id="220023514#1" layer="-1.00" shape="325.36,786.33 345.31,772.38 328.49,747.82 309.95,761.36 325.36,786.33" type="shop"/>
   <poly color="red" fill="1" id="220023515" layer="-1.00" shape="345.31,772.38 378.08,748.84 360.80,724.39 328.49,747.82 345.31,772.38" type="building"/>
   <poly color="red" fill="1" id="220768204" layer="-1.00" shape="653.67,512.31 662.85,508.46 655.19,490.56 645.77,493.60 653.67,512.31" type="building"/>
   <poly color="184,184,179" fill="1" id="220768206" layer="-1.00" shape="598.86,669.19 670.28,681.81 668.61,690.06 665.04,707.76 661.66,724.51 659.42,735.63 657.68,744.26 590.74,729.98 591.71,722.74 593.22,711.28 595.43,694.55 597.87,676.62 598.86,669.19" type="parking"/>
   <poly color="red" fill="1" id="221087406" layer="-1.00" shape="392.01,191.10 414.64,183.90 410.31,170.34 387.66,177.54 392.01,191.10" type="building"/>
   <poly color="red" fill="1" id="221087414" layer="-1.00" shape="167.01,347.24 146.02,354.38 150.64,367.91 171.64,360.77 167.01,347.24" type="building"/>
   <poly color="red" fill="1" id="221087420" layer="-1.00" shape="554.66,456.51 571.56,449.94 559.70,419.59 542.80,426.17 554.66,456.51" type="building"/>
   <poly color="red" fill="1" id="221087423" layer="-1.00" shape="151.54,384.82 162.73,381.03 161.30,376.84 169.33,374.13 166.02,364.41 146.81,370.91 151.54,384.82" type="building"/>
   <poly color="red" fill="1" id="221087425" layer="-1.00" shape="532.18,77.56 556.81,70.25 550.31,48.48 525.67,55.78 532.18,77.56" type="building"/>
   <poly color="red" fill="1" id="221087427" layer="-1.00" shape="2.49,623.66" type="building"/>
   <poly color="207,245,201" fill="1" id="221087427#1" layer="-2.00" shape="2.49,623.66" type="tourism"/>
   <poly color="red" fill="1" id="221087430" layer="-1.00" shape="628.41,216.17 639.98,213.88 637.15,199.70 625.57,202.00 628.41,216.17" type="building"/>
   <poly color="red" fill="1" id="221087432" layer="-1.00" shape="208.23,109.62 211.46,118.69 228.58,112.65 225.36,103.58 208.23,109.62" type="building"/>
   <poly color="red" fill="1" id="221087435" layer="-1.00" shape="428.34,324.73 430.27,335.11 439.17,333.46 437.24,323.08 428.34,324.73" type="building"/>
   <poly color="red" fill="1" id="221087437" layer="-1.00" shape="85.30,193.83 73.28,216.25 94.72,227.67 96.89,223.62 104.56,227.69 111.98,213.86 104.28,209.75 106.70,205.23 85.30,193.83" type="building"/>
   <poly color="184,184,179" fill="1" id="229399477" layer="-1.00" shape="9.08,623.53 16.87,606.42 12.03,611.91 16.15,615.53 9.08,623.53" type="parking"/>
   <poly color="red" fill="1" id="28124233" layer="-1.00" shape="659.76,208.91 757.29,188.05 720.05,15.12 622.51,35.98 659.76,208.91" type="building"/>
   <poly color="red" fill="1" id="283665598" layer="-1.00" shape="313.54,612.46 316.20,611.46 314.77,607.71 312.11,608.71 313.54,612.46" type="building"/>
   <poly color="red" fill="1" id="288213470" layer="-1.00" shape="192.31,235.24 209.17,229.07 202.53,211.03 185.66,217.20 192.31,235.24" type="building"/>
   <poly color="red" fill="1" id="288213471" layer="-1.00" shape="109.31,200.24 120.27,205.74 128.72,188.97 117.76,183.47 109.31,200.24" type="building"/>
   <poly color="red" fill="1" id="288213472" layer="-1.00" shape="238.72,256.68 248.76,253.00 241.53,233.41 231.49,237.09 238.72,256.68" type="building"/>
   <poly color="red" fill="1" id="288213474" layer="-1.00" shape="316.71,109.07 323.49,128.26 306.75,134.14 299.96,114.95 316.71,109.07" type="building"/>
   <poly color="red" fill="1" id="288213475" layer="-1.00" shape="91.68,147.78 51.02,125.96 56.98,114.90 101.69,138.90 95.73,149.95 91.68,147.78" type="building"/>
   <poly color="red" fill="1" id="288213476" layer="-1.00" shape="245.18,274.21 260.61,268.54 254.15,251.03 248.76,253.00 238.72,256.68 245.18,274.21" type="building"/>
   <poly color="red" fill="1" id="288213477" layer="-1.00" shape="22.59,271.42 13.58,201.52 49.81,221.15 22.59,271.42" type="building"/>
   <poly color="red" fill="1" id="288213478" layer="-1.00" shape="66.63,530.68 41.09,516.91 51.19,498.29 38.77,491.60 51.29,468.54 63.40,475.06 73.18,457.04 99.03,470.98 66.63,530.68" type="building"/>
   <poly color="184,184,179" fill="1" id="288213481" layer="-1.00" shape="32.97,567.20 55.36,552.33 103.57,527.13 112.39,517.39 114.32,499.17 84.41,414.60 24.99,523.69 9.69,533.23 32.97,567.20" type="parking"/>
   <poly color="red" fill="1" id="288213482" layer="-1.00" shape="311.69,94.89 324.05,90.55 328.56,103.32 316.21,107.66 311.69,94.89" type="building"/>
   <poly color="209,209,204" fill="1" id="290512107" layer="-3.00" shape="69.56,712.10 93.22,696.04 94.78,693.35 94.27,690.11 79.39,669.43 73.30,665.87 70.00,666.04 64.57,669.08 47.04,682.91 49.02,685.47 43.63,688.40 36.52,691.44 27.80,690.54 18.85,687.45 8.42,680.23 66.89,708.63 69.56,712.10" type="commercial"/>
   <poly color="140,196,107" fill="1" id="290512109" layer="-3.00" shape="426.27,340.83 393.93,258.12 450.78,240.13 439.94,202.48 448.21,197.01 446.82,188.41 444.95,182.75 431.23,187.90 426.76,185.41 429.12,179.94 445.54,172.50 429.09,133.97 439.38,123.84 457.54,100.30 446.32,129.19 449.83,149.61 453.26,162.60 447.81,171.30 469.11,232.90 494.86,321.69 449.09,333.19 426.27,340.83" type="forest"/>
   <poly color="209,209,204" fill="0" id="291348381" layer="-3.00" shape="796.55,760.69 791.33,774.56 792.22,790.55 655.97,795.19 657.28,787.33 648.47,783.98 587.25,764.06 590.21,733.18 658.92,747.57 658.97,747.45 677.15,751.41 699.29,754.41 719.36,755.33 732.87,753.16 743.11,747.20 754.52,733.38 764.27,698.35 773.52,678.61 779.24,656.54 786.22,653.93 800.47,658.65 797.29,562.40 797.33,575.50 793.44,577.33 790.33,569.12 783.75,559.86 783.38,548.89 787.74,542.74 782.27,241.08 817.66,74.33 810.26,31.79" type="commercial"/>
   <poly color="red" fill="0" id="298834856" layer="-1.00" shape="584.53,799.30 620.30,779.61 642.95,787.03" type="building"/>
   <poly color="194,194,130" fill="0" id="30060353" layer="-3.00" shape="8.42,680.23 18.85,687.45 27.80,690.54 36.52,691.44 43.63,688.40 49.02,685.47 66.89,708.63" type="landuse"/>
   <poly color="140,196,107" fill="1" id="30060354" layer="-3.00" shape="69.56,712.10 93.22,696.04 94.78,693.35 94.27,690.11 79.39,669.43 73.30,665.87 70.00,666.04 64.57,669.08 47.04,682.91 49.02,685.47 66.89,708.63 69.56,712.10" type="forest"/>
   <poly color="red" fill="1" id="30060355" layer="-1.00" shape="32.63,745.69 27.88,783.82 41.06,783.64 36.65,776.26 -4.95,768.03 32.63,745.69" type="building"/>
   <poly color="red" fill="1" id="30060355#1" layer="-1.00" shape="32.63,745.69 27.88,783.82 41.06,783.64 36.65,776.26 -4.95,768.03 32.63,745.69" type="building"/>
   <poly color="red" fill="1" id="30060357" layer="-1.00" shape="99.59,737.22 85.09,712.60 62.96,725.54 77.47,750.18 99.59,737.22" type="building"/>
   <poly color="140,196,107" fill="0" id="30084866" layer="-3.00" shape="486.53,776.58 511.59,761.97 529.18,767.25 536.71,757.90 577.76,768.55 579.76,755.57 581.08,744.89 578.99,741.67 571.50,740.04 489.85,734.33 480.74,728.19 486.89,694.92 492.29,665.95 494.34,646.10 484.99,646.59 483.23,674.62 475.22,702.41 465.39,709.95 454.00,715.28 439.45,720.90 409.27,728.19 399.28,725.79 397.04,736.21 388.18,743.50 382.22,755.50 352.87,776.86 415.67,782.78" type="forest"/>
   <poly color="red" fill="0" id="30120835" layer="-1.00" shape="14.92,354.08 6.36,391.08" type="building"/>
   <poly color="red" fill="1" id="30120836" layer="-1.00" shape="22.59,271.42 49.81,221.15 85.34,240.39 77.68,254.30 85.37,258.50 82.04,264.55 82.89,267.51 80.11,268.06 75.32,276.76 68.21,272.87 58.35,290.78 22.59,271.42" type="building"/>
   <poly color="red" fill="0" id="30120837" layer="-1.00" shape="45.34,206.48 56.32,186.92 21.64,167.55" type="building"/>
   <poly color="red" fill="1" id="30120838" layer="-1.00" shape="109.31,200.24 117.76,183.47 96.59,172.86 88.13,189.62 109.31,200.24" type="building"/>
   <poly color="red" fill="1" id="30120839" layer="-1.00" shape="51.02,125.96 47.65,124.13 27.36,162.34 65.35,182.92 70.69,173.97 78.23,168.74 84.73,160.45 91.68,147.78 51.02,125.96" type="building"/>
   <poly color="red" fill="1" id="30120840" layer="-1.00" shape="93.24,56.73 102.31,39.25 184.17,81.54 170.34,108.16 153.51,99.46 158.26,90.32 93.24,56.73" type="building"/>
   <poly color="red" fill="1" id="30120841" layer="-1.00" shape="151.51,34.88 163.70,11.66 212.34,37.04 197.84,64.67 186.99,59.01 189.30,54.61 151.51,34.88" type="building"/>
   <poly color="red" fill="0" id="30120843" layer="-1.00" shape="9.74,494.82 22.80,521.03 38.77,491.60 51.29,468.54 78.92,417.60 56.91,405.72 64.93,390.93 42.69,378.92" type="building"/>
   <poly color="red" fill="1" id="30120847" layer="-1.00" shape="98.36,401.19 89.54,375.32 128.32,362.17 137.14,388.03 98.36,401.19" type="building"/>
   <poly color="red" fill="1" id="30120848" layer="-1.00" shape="134.01,489.53 125.64,467.04 139.59,461.87 142.33,469.22 154.93,464.57 160.57,479.70 134.01,489.53" type="building"/>
   <poly color="red" fill="1" id="30120849" layer="-1.00" shape="263.23,638.71 225.62,653.07 191.96,565.44 184.25,568.38 169.45,529.85 220.53,510.35 247.51,580.61 241.76,582.81 263.23,638.71" type="building"/>
   <poly color="237,199,255" fill="1" id="30120849#1" layer="-1.00" shape="263.23,638.71 225.62,653.07 191.96,565.44 184.25,568.38 169.45,529.85 220.53,510.35 247.51,580.61 241.76,582.81 263.23,638.71" type="shop"/>
   <poly color="red" fill="1" id="30120851" layer="-1.00" shape="279.65,627.81 233.04,509.88 261.15,498.84 307.76,616.76 279.65,627.81" type="building"/>
   <poly color="red" fill="1" id="30120852" layer="-1.00" shape="309.20,584.54 289.14,532.65 344.82,511.27 350.43,525.78 370.96,517.90 378.14,536.47 359.14,543.77 366.41,562.56 309.20,584.54" type="building"/>
   <poly color="red" fill="1" id="30120853" layer="-1.00" shape="73.31,109.56 148.27,148.73 162.65,121.37 103.96,90.70 96.95,104.03 80.68,95.53 73.31,109.56" type="building"/>
   <poly color="red" fill="1" id="30120854" layer="-1.00" shape="118.29,310.26 106.85,282.80 154.00,265.16 168.32,302.97 138.24,314.29 140.00,318.59 137.41,319.47 118.29,310.26" type="building"/>
   <poly color="red" fill="1" id="30120855" layer="-1.00" shape="150.34,521.58 134.51,514.64 136.84,506.00 167.93,496.02 164.78,486.43 178.09,482.09 187.11,509.58 150.34,521.58" type="building"/>
   <poly color="red" fill="1" id="30121762" layer="-1.00" shape="165.26,721.38 161.98,718.01 158.79,716.70 152.84,716.35 149.10,718.33 143.03,709.60 138.45,712.77 102.64,661.20 105.58,658.78 106.94,654.87 106.81,651.14 104.86,648.39 130.30,630.82 150.77,660.30 147.23,662.75 180.60,710.79 165.26,721.38" type="building"/>
   <poly color="237,199,255" fill="1" id="30121762#1" layer="-1.00" shape="165.26,721.38 161.98,718.01 158.79,716.70 152.84,716.35 149.10,718.33 143.03,709.60 138.45,712.77 102.64,661.20 105.58,658.78 106.94,654.87 106.81,651.14 104.86,648.39 130.30,630.82 150.77,660.30 147.23,662.75 180.60,710.79 165.26,721.38" type="shop"/>
   <poly color="184,184,179" fill="1" id="30122446" layer="-1.00" shape="89.45,649.07 45.12,602.96 42.89,593.78 51.56,581.98 111.66,543.03 138.92,613.58 89.45,649.07" type="parking"/>
   <poly color="184,184,179" fill="1" id="30122447" layer="-1.00" shape="164.78,673.30 115.52,547.53 146.92,536.81 166.47,551.45 174.74,574.23 177.02,579.44 181.16,577.84 189.84,574.47 222.37,659.26 264.06,645.10 268.47,660.91 224.40,691.60 215.27,697.95 199.87,660.39 164.78,673.30" type="parking"/>
   <poly color="184,184,179" fill="1" id="30122448" layer="-1.00" shape="58.35,290.78 68.21,272.87 75.32,276.76 80.11,268.06 82.89,267.51 82.04,264.55 85.37,258.50 77.68,254.30 85.34,240.39 89.87,232.35 111.57,244.09 76.61,307.59 55.50,296.17 58.35,290.78" type="parking"/>
   <poly color="184,184,179" fill="1" id="30122449" layer="-1.00" shape="141.82,323.02 156.72,325.33 167.49,324.53 178.11,320.62 171.65,301.79 168.32,302.97 138.24,314.29 140.00,318.59 141.82,323.02" type="parking"/>
   <poly color="184,184,179" fill="1" id="30122450" layer="-1.00" shape="148.27,148.73 161.41,155.46 181.02,119.05 92.97,71.90 80.68,95.53 96.95,104.03 103.96,90.70 162.65,121.37 148.27,148.73" type="parking"/>
   <poly color="184,184,179" fill="1" id="30122451" layer="-1.00" shape="249.89,20.20 272.34,25.82 274.47,15.24 249.89,20.20" type="parking"/>
   <poly color="184,184,179" fill="1" id="30122452" layer="-1.00" shape="313.42,20.58 336.87,25.99 348.65,-1.27 318.30,-5.09 313.42,20.58" type="parking"/>
   <poly color="184,184,179" fill="1" id="30122453" layer="-1.00" shape="14.96,655.08 20.55,660.64 27.22,667.28 52.96,641.58 40.70,629.38 14.96,655.08" type="parking"/>
   <poly color="red" fill="1" id="30474828" layer="-1.00" shape="178.79,313.90 162.92,269.82 195.07,258.31 203.87,282.74 201.29,283.66 202.78,287.80 205.14,286.96 210.73,302.48 178.79,313.90" type="building"/>
   <poly color="237,199,255" fill="1" id="30474828#1" layer="-1.00" shape="178.79,313.90 162.92,269.82 195.07,258.31 203.87,282.74 201.29,283.66 202.78,287.80 205.14,286.96 210.73,302.48 178.79,313.90" type="shop"/>
   <poly color="red" fill="1" id="30474829" layer="-1.00" shape="225.47,296.54 220.52,283.01 236.04,277.36 240.99,290.89 225.47,296.54" type="building"/>
   <poly color="red" fill="1" id="30474830" layer="-1.00" shape="284.37,275.97 271.97,244.05 284.93,239.04 297.33,270.97 284.37,275.97" type="building"/>
   <poly color="red" fill="1" id="30474831" layer="-1.00" shape="267.46,215.02 253.44,176.94 269.16,171.20 283.17,209.28 267.46,215.02" type="building"/>
   <poly color="red" fill="1" id="30474833" layer="-1.00" shape="156.25,248.48 149.76,230.29 177.44,220.47 183.93,238.65 156.25,248.48" type="building"/>
   <poly color="237,199,255" fill="1" id="30474833#1" layer="-1.00" shape="156.25,248.48 149.76,230.29 177.44,220.47 183.93,238.65 156.25,248.48" type="shop"/>
   <poly color="red" fill="1" id="30474834" layer="-1.00" shape="190.18,150.84 194.71,140.86 203.36,137.63 219.14,179.81 186.39,191.99 181.20,178.11 195.11,172.93 191.48,163.24 194.41,162.14 190.18,150.84" type="building"/>
   <poly color="red" fill="1" id="30474835" layer="-1.00" shape="219.12,154.62 206.93,120.29 211.46,118.69 228.58,112.65 236.01,110.03 248.17,144.38 219.12,154.62" type="building"/>
   <poly color="red" fill="1" id="30474837" layer="-1.00" shape="259.27,112.35 243.75,70.36 262.35,63.53 277.87,105.51 259.27,112.35" type="building"/>
   <poly color="red" fill="1" id="30474841" layer="-1.00" shape="311.69,94.89 316.21,107.66 316.71,109.07 299.96,114.95 288.39,119.01 285.78,119.93 280.76,105.76 311.69,94.89" type="building"/>
   <poly color="red" fill="1" id="30474843" layer="-1.00" shape="280.19,105.46 275.68,92.20 282.36,89.91 287.06,102.65 280.19,105.46" type="building"/>
   <poly color="red" fill="1" id="30474845" layer="-1.00" shape="310.78,89.19 301.69,59.57 314.64,55.62 323.73,85.25 310.78,89.19" type="building"/>
   <poly color="red" fill="1" id="30474846" layer="-1.00" shape="295.18,138.21 288.39,119.01 299.96,114.95 306.75,134.14 295.18,138.21" type="building"/>
   <poly color="red" fill="1" id="30474847" layer="-1.00" shape="310.45,169.84 303.38,149.83 308.90,147.90 307.00,142.53 322.68,137.02 321.24,132.92 326.52,131.07 331.42,144.91 323.34,147.75 328.87,163.36 310.45,169.84" type="building"/>
   <poly color="red" fill="1" id="30474849" layer="-1.00" shape="324.23,228.49 319.53,213.55 351.73,203.48 356.43,218.42 324.23,228.49" type="building"/>
   <poly color="red" fill="1" id="30474851" layer="-1.00" shape="335.90,254.16 328.47,233.98 360.16,222.39 367.59,242.57 335.90,254.16" type="building"/>
   <poly color="red" fill="1" id="30475214" layer="-1.00" shape="316.51,204.75 307.18,179.22 329.19,171.22 330.94,176.03 338.27,173.36 343.82,188.54 320.04,197.18 322.07,202.73 316.51,204.75" type="building"/>
   <poly color="140,196,107" fill="1" id="30475624" layer="-3.00" shape="305.56,273.99 334.97,262.83 324.82,235.52 313.99,212.53 302.25,178.77 310.65,175.06 299.00,141.82 291.06,138.29 279.09,108.81 260.65,115.14 242.63,101.52 227.77,67.77 217.26,85.12 240.71,105.86 253.38,116.17 272.70,168.88 285.95,211.43 287.44,226.12 300.86,271.44 305.56,273.99" type="forest"/>
   <poly color="184,184,179" fill="1" id="30475625" layer="-1.00" shape="130.07,252.96 135.75,235.15 148.94,210.08 171.07,201.57 177.44,220.47 149.76,230.29 156.25,248.48 159.87,258.29 135.63,267.16 130.07,252.96" type="parking"/>
   <poly color="184,184,179" fill="1" id="30475627" layer="-1.00" shape="186.84,195.07 165.88,202.72 160.77,187.99 175.13,161.37 194.84,127.07 199.80,138.34 194.32,140.46 189.71,150.89 193.79,161.88 190.91,162.99 194.39,172.64 180.49,177.67 186.84,195.07" type="parking"/>
   <poly color="184,184,179" fill="1" id="30475628" layer="-1.00" shape="223.32,178.55 269.67,162.97 252.71,116.56 240.23,106.74 236.01,110.03 248.17,144.38 219.12,154.62 215.45,156.11 223.32,178.55" type="parking"/>
   <poly color="184,184,179" fill="1" id="30475629" layer="-1.00" shape="333.73,125.42 333.86,102.30 317.30,107.94 324.10,128.46 333.73,125.42" type="parking"/>
   <poly color="red" fill="1" id="30613446" layer="-1.00" shape="189.26,500.17 160.05,421.08 175.78,415.30 204.98,494.40 189.26,500.17" type="building"/>
   <poly color="red" fill="1" id="30613447" layer="-1.00" shape="214.37,438.01 197.68,392.34 287.76,359.65 304.24,404.76 249.83,424.52 252.87,432.84 228.91,441.54 226.06,433.76 214.37,438.01" type="building"/>
   <poly color="237,199,199" fill="1" id="30613448" layer="-1.00" shape="398.43,434.32 387.49,403.76 424.42,390.63 435.36,421.19 398.43,434.32" type="amenity"/>
   <poly color="red" fill="1" id="30613448#1" layer="-1.00" shape="398.43,434.32 387.49,403.76 424.42,390.63 435.36,421.19 398.43,434.32" type="building"/>
   <poly color="red" fill="1" id="30613449" layer="-1.00" shape="436.12,446.27 438.55,452.45 447.68,448.88 457.90,474.83 444.98,479.89 444.09,477.63 438.28,479.90 436.39,475.12 426.81,478.87 416.93,453.79 436.12,446.27" type="building"/>
   <poly color="red" fill="1" id="30613450" layer="-1.00" shape="444.13,527.90 430.72,493.74 445.12,488.12 458.53,522.28 444.13,527.90" type="building"/>
   <poly color="237,199,255" fill="1" id="30613450#1" layer="-1.00" shape="444.13,527.90 430.72,493.74 445.12,488.12 458.53,522.28 444.13,527.90" type="shop"/>
   <poly color="red" fill="1" id="30613451" layer="-1.00" shape="397.71,551.34 425.67,540.04 399.49,475.61 371.52,486.91 397.71,551.34" type="building"/>
   <poly color="181,209,209" fill="1" id="30613452" layer="-4.00" shape="368.23,362.76 376.31,357.37 372.69,303.79 367.03,282.28 341.13,292.17 368.23,362.76" type="water"/>
   <poly color="140,196,107" fill="1" id="30613453" layer="-3.00" shape="333.07,280.76 369.88,267.22 378.46,270.47 411.33,359.98 379.15,370.06 366.99,367.05 333.07,280.76" type="forest"/>
   <poly color="181,209,209" fill="1" id="30613454" layer="-4.00" shape="450.46,322.70 461.51,321.70 475.57,317.74 484.13,310.19 479.09,285.56 473.11,269.06 469.56,253.64 460.57,246.55 440.54,247.26 411.11,260.32 413.83,273.15 422.60,290.56 431.93,304.76 443.86,304.47 450.46,322.70" type="water"/>
   <poly color="194,194,130" fill="1" id="30613456" layer="-3.00" shape="277.87,518.11 265.79,486.10 375.79,447.24 381.66,457.68 382.60,469.35 393.29,476.60 366.52,487.27 364.68,482.16 277.87,518.11" type="landuse"/>
   <poly color="red" fill="1" id="30730660" layer="-1.00" shape="494.76,487.36 484.49,460.73 498.38,455.39 501.39,462.77 535.64,451.69 542.99,468.23 494.76,487.36" type="building"/>
   <poly color="red" fill="1" id="30730661" layer="-1.00" shape="482.69,450.76 466.94,410.46 506.15,395.22 511.74,409.51 524.77,404.45 534.94,430.46 482.69,450.76" type="building"/>
   <poly color="red" fill="1" id="30730663" layer="-1.00" shape="462.26,402.02 454.26,381.19 504.09,362.19 512.09,383.02 462.26,402.02" type="building"/>
   <poly color="red" fill="1" id="30730664" layer="-1.00" shape="449.15,363.93 444.74,340.28 471.39,335.35 473.16,344.83 486.37,342.39 489.01,356.55 449.15,363.93" type="building"/>
   <poly color="red" fill="1" id="30730665" layer="-1.00" shape="530.82,375.57 521.95,353.11 545.86,343.73 554.73,366.19 530.82,375.57" type="building"/>
   <poly color="red" fill="1" id="30730667" layer="-1.00" shape="585.71,447.47 559.35,380.06 591.91,367.41 618.27,434.82 585.71,447.47" type="building"/>
   <poly color="red" fill="1" id="30730668" layer="-1.00" shape="635.28,432.37 618.42,385.47 634.29,379.80 651.15,426.70 635.28,432.37" type="building"/>
   <poly color="red" fill="1" id="30730670" layer="-1.00" shape="567.81,362.15 560.50,341.90 627.26,317.93 634.57,338.19 567.81,362.15" type="building"/>
   <poly color="red" fill="1" id="30730672" layer="-1.00" shape="477.94,227.23 462.91,172.39 511.59,159.44 517.76,182.36 571.97,166.58 580.11,198.80 477.94,227.23" type="building"/>
   <poly color="red" fill="1" id="30730674" layer="-1.00" shape="395.69,246.99 385.54,221.12 422.66,206.87 433.36,234.71 395.69,246.99" type="building"/>
   <poly color="red" fill="1" id="30730675" layer="-1.00" shape="380.51,178.73 374.27,159.27 389.84,154.38 396.07,173.85 380.51,178.73" type="building"/>
   <poly color="red" fill="1" id="30730676" layer="-1.00" shape="367.53,149.72 358.38,125.12 382.55,116.19 391.70,140.79 367.53,149.72" type="building"/>
   <poly color="red" fill="1" id="30730677" layer="-1.00" shape="401.47,66.27 387.75,54.40 401.47,66.27" type="building"/>
   <poly color="red" fill="1" id="30730678" layer="-1.00" shape="409.88,57.45 428.92,73.49 478.45,15.03 459.42,-1.01 409.88,57.45" type="building"/>
   <poly color="red" fill="1" id="30730680" layer="-1.00" shape="453.93,95.85 428.26,74.04 476.95,17.08 502.62,38.90 453.93,95.85" type="building"/>
   <poly color="red" fill="1" id="30730681" layer="-1.00" shape="505.06,337.75 476.46,248.87 510.79,237.36 539.38,326.24 505.06,337.75" type="building"/>
   <poly color="184,184,179" fill="1" id="30730682" layer="-1.00" shape="349.95,128.21 348.15,118.76 349.17,98.23 352.39,74.77 359.25,51.07 370.33,31.05 389.53,2.96 547.93,-1.62 552.58,14.51 505.79,41.78 502.62,38.90 459.42,-1.01 387.75,54.40 401.47,66.27 409.88,57.45 453.93,95.85 457.54,100.30 439.38,123.84 429.09,133.97 420.88,134.80 397.34,140.46 391.31,143.09 391.70,140.79 382.55,116.19 358.38,125.12 349.95,128.21" type="parking"/>
   <poly color="194,194,130" fill="1" id="30730684" layer="-3.00" shape="626.84,436.36 601.10,363.08 644.58,347.89 651.13,366.53 632.68,372.97 634.29,379.80 618.42,385.47 635.28,432.37 626.84,436.36" type="landuse"/>
   <poly color="red" fill="1" id="30730685" layer="-1.00" shape="700.02,371.80 682.25,287.98 735.11,276.84 732.03,262.30 773.94,253.47 794.80,351.84 700.02,371.80" type="building"/>
   <poly color="red" fill="1" id="30732716" layer="-1.00" shape="205.85,787.15" type="building"/>
   <poly color="237,199,255" fill="1" id="30732716#1" layer="-1.00" shape="205.85,787.15" type="shop"/>
   <poly color="red" fill="0" id="30732718" layer="-1.00" shape="214.92,780.22 236.24,766.37 244.69,779.32" type="building"/>
   <poly color="red" fill="0" id="30732719" layer="-1.00" shape="239.28,752.58 271.68,731.67" type="building"/>
   <poly color="237,199,199" fill="1" id="30732721" layer="-1.00" shape="311.13,702.65 331.70,688.26 327.03,681.63 323.99,683.75 320.71,679.07 322.99,677.48 315.44,666.74 291.58,683.43 298.67,693.51 301.44,691.58 306.01,698.08 307.29,697.19 311.13,702.65" type="amenity"/>
   <poly color="red" fill="1" id="30732721#1" layer="-1.00" shape="311.13,702.65 331.70,688.26 327.03,681.63 323.99,683.75 320.71,679.07 322.99,677.48 315.44,666.74 291.58,683.43 298.67,693.51 301.44,691.58 306.01,698.08 307.29,697.19 311.13,702.65" type="building"/>
   <poly color="red" fill="1" id="30732722" layer="-1.00" shape="370.36,717.87 364.00,698.56 382.25,692.58 388.61,711.90 370.36,717.87" type="building"/>
   <poly color="red" fill="1" id="30732723" layer="-1.00" shape="366.45,697.46 360.69,680.40 375.31,675.50 381.07,692.56 366.45,697.46" type="building"/>
   <poly color="red" fill="1" id="30732724" layer="-1.00" shape="357.02,681.73 351.54,665.81 371.20,659.07 376.68,674.99 357.02,681.73" type="building"/>
   <poly color="237,199,255" fill="1" id="30732724#1" layer="-1.00" shape="357.02,681.73 351.54,665.81 371.20,659.07 376.68,674.99 357.02,681.73" type="shop"/>
   <poly color="red" fill="1" id="30732725" layer="-1.00" shape="387.56,691.88 369.42,645.38 373.16,643.93 392.54,636.42 410.68,682.91 387.56,691.88" type="building"/>
   <poly color="red" fill="1" id="30732726" layer="-1.00" shape="433.00,648.86 456.82,640.66 453.52,631.12 448.86,632.73 446.40,625.63 438.11,628.47 440.44,635.21 429.57,638.94 433.00,648.86" type="building"/>
   <poly color="red" fill="1" id="30732727" layer="-1.00" shape="429.31,631.50 424.46,617.46 436.56,613.30 447.88,609.41 452.74,623.45 446.40,625.63 438.11,628.47 429.31,631.50" type="building"/>
   <poly color="red" fill="1" id="30732728" layer="-1.00" shape="436.56,613.30 431.75,599.40 456.14,591.02 460.95,604.91 447.88,609.41 436.56,613.30" type="building"/>
   <poly color="red" fill="1" id="30732729" layer="-1.00" shape="444.90,674.47 440.45,661.81 467.70,652.31 471.75,663.84 460.07,667.92 463.76,678.44 453.06,682.18 449.76,672.77 444.90,674.47" type="building"/>
   <poly color="237,199,199" fill="1" id="30732730" layer="-1.00" shape="516.69,648.36 524.14,649.60 533.28,651.08 571.49,657.34 583.18,659.25 571.65,729.26 505.16,718.36 516.69,648.36" type="amenity"/>
   <poly color="red" fill="1" id="30732730#1" layer="-1.00" shape="516.69,648.36 524.14,649.60 533.28,651.08 571.49,657.34 583.18,659.25 571.65,729.26 505.16,718.36 516.69,648.36" type="building"/>
   <poly color="red" fill="1" id="30732731" layer="-1.00" shape="533.28,651.08 536.38,631.83 531.65,631.07 537.42,595.26 531.61,594.32 539.13,547.66 595.99,556.78 589.77,595.37 581.69,594.07 571.49,657.34 533.28,651.08" type="building"/>
   <poly color="red" fill="1" id="30732732" layer="-1.00" shape="623.96,635.94 637.67,573.38 663.99,579.12 650.27,641.68 623.96,635.94" type="building"/>
   <poly color="237,199,255" fill="1" id="30732732#1" layer="-1.00" shape="623.96,635.94 637.67,573.38 663.99,579.12 650.27,641.68 623.96,635.94" type="shop"/>
   <poly color="red" fill="1" id="30732733" layer="-1.00" shape="692.61,644.52 718.21,650.15 728.09,600.79 701.66,594.84 692.61,644.52" type="building"/>
   <poly color="red" fill="1" id="30732734" layer="-1.00" shape="630.72,538.10 611.86,493.40 633.03,484.52 651.89,529.23 630.72,538.10" type="building"/>
   <poly color="237,199,255" fill="1" id="30732734#1" layer="-1.00" shape="630.72,538.10 611.86,493.40 633.03,484.52 651.89,529.23 630.72,538.10" type="shop"/>
   <poly color="red" fill="1" id="30732735" layer="-1.00" shape="646.77,492.27 642.02,478.10 669.24,467.37 676.04,483.46 646.77,492.27" type="building"/>
   <poly color="red" fill="1" id="30732736" layer="-1.00" shape="690.71,520.90 676.10,482.83 691.05,477.13 685.33,462.21 706.22,454.25 726.55,507.24 690.71,520.90" type="building"/>
   <poly color="red" fill="1" id="30732737" layer="-1.00" shape="729.53,489.55 726.60,480.34 722.86,481.54 713.83,453.24 733.46,447.02 745.42,484.52 729.53,489.55" type="building"/>
   <poly color="red" fill="1" id="30732738" layer="-1.00" shape="740.47,527.86 737.09,517.88 752.70,512.64 756.08,522.62 740.47,527.86" type="building"/>
   <poly color="237,199,255" fill="1" id="30732738#1" layer="-1.00" shape="740.47,527.86 737.09,517.88 752.70,512.64 756.08,522.62 740.47,527.86" type="shop"/>
   <poly color="red" fill="1" id="30732739" layer="-1.00" shape="778.00,540.72 759.44,489.50 786.85,479.63 778.00,540.72" type="building"/>
   <poly color="red" fill="1" id="30732739#1" layer="-1.00" shape="778.00,540.72 759.44,489.50 786.85,479.63 778.00,540.72" type="building"/>
   <poly color="red" fill="1" id="30732740" layer="-1.00" shape="803.63,524.21 798.92,473.32 798.89,511.61 803.63,524.21" type="building"/>
   <poly color="red" fill="1" id="30732741" layer="-1.00" shape="757.09,424.01 786.26,412.34 803.83,455.97 774.66,467.64 757.09,424.01" type="building"/>
   <poly color="red" fill="1" id="30732741#1" layer="-1.00" shape="757.09,424.01 786.26,412.34 803.83,455.97 774.66,467.64 757.09,424.01" type="building"/>
   <poly color="red" fill="1" id="30732742" layer="-1.00" shape="805.39,458.53 788.21,416.56 805.39,458.53" type="building"/>
   <poly color="red" fill="1" id="30732747" layer="-1.00" shape="718.60,650.49 727.73,652.36 732.57,657.05 739.80,655.61 743.46,647.39 737.99,637.95 745.52,604.89 729.22,600.77 718.60,650.49" type="building"/>
   <poly color="237,199,255" fill="1" id="30732747#1" layer="-1.00" shape="718.60,650.49 727.73,652.36 732.57,657.05 739.80,655.61 743.46,647.39 737.99,637.95 745.52,604.89 729.22,600.77 718.60,650.49" type="shop"/>