<?xml version="1.0" encoding="utf-8"?><!-- generated on 10/11/17 17:55:00 by SUMO polyconvert Version 0.25.0
<?xml version="1.0" encoding="UTF-8"?>

<configuration xmlns:xsi="http://www.w3.org/2001/XMLSchema-instance" xsi:noNamespaceSchemaLocation="http://sumo.dlr.de/xsd/polyconvertConfiguration.xsd">

    <input>
        <net-file value="IN_RWStr_urban_800.net.xml"/>
        <osm-files value="IN_RWStr_urban_800.osm"/>
        <type-file value="osmPolyconvert.typ.xml"/>
    </input>

    <output>
        <output-file value="IN_RWStr_urban_800.poly.xml"/>
    </output>

    <projection>
        <proj.utm value="true"/>
    </projection>

    <processing>
        <poi-layer-offset value="5"/>
    </processing>

</configuration>
-->
<additional>
   <location convBoundary="-8.88,0.00,809.58,815.90" netOffset="-676186.01,-5404797.90" origBoundary="11.398103,48.771151,11.409012,48.778342" projParameter="+proj=utm +zone=32 +ellps=WGS84 +datum=WGS84 +units=m +no_defs"/>
   <poly color="red" fill="1" id="104533360" layer="-1.00" shape="178.65,362.45 185.86,362.76 185.99,359.54 201.96,360.22 201.00,383.18 192.19,382.82 192.41,377.38 189.58,377.27 185.50,377.10 185.15,385.32 177.70,385.01 178.65,362.45" type="building"/>
   <poly color="red" fill="1" id="104534014" layer="-1.00" shape="213.07,426.26 230.75,426.62 230.18,453.82 217.07,453.55 212.50,453.45 212.59,449.42 213.07,426.26" type="building"/>
   <poly color="184,184,179" fill="1" id="114697739" layer="-1.00" shape="6.61,348.53 62.18,348.84 70.25,351.38 136.56,350.83 154.53,357.74 133.31,395.38 118.80,417.01 106.73,422.97 79.38,422.64 65.73,416.46 62.17,415.68 36.40,413.44 18.09,418.03 12.19,416.10 6.37,307.79 6.61,348.53" type="parking"/>
   <poly color="red" fill="1" id="137132999" layer="-1.00" shape="66.68,688.22 72.31,669.18 123.06,684.74 135.32,646.22 148.64,650.58 130.36,708.28 66.68,688.22" type="building"/>
   <poly color="184,184,179" fill="1" id="137133013" layer="-1.00" shape="39.45,658.03 51.27,661.54 69.69,666.99 78.67,636.85 48.43,627.90 39.45,658.03" type="parking"/>
   <poly color="red" fill="0" id="166878969" layer="-1.00" shape="20.87,61.41 17.77,52.71" type="building"/>
   <poly color="red" fill="1" id="166878970" layer="-1.00" shape="32.85,33.46 63.33,22.67 60.23,13.98 29.75,24.76 32.85,33.46" type="building"/>
   <poly color="red" fill="0" id="166878971" layer="-1.00" shape="78.84,65.11 75.51,55.67" type="building"/>
   <poly color="red" fill="1" id="166878972" layer="-1.00" shape="55.10,2.37" type="building"/>
   <poly color="red" fill="1" id="166878973" layer="-1.00" shape="39.73,54.22 70.21,43.43 67.12,34.73 36.63,45.52 39.73,54.22" type="building"/>
   <poly color="red" fill="1" id="166878974" layer="-1.00" shape="13.54,40.47" type="building"/>
   <poly color="red" fill="1" id="166878975" layer="-1.00" shape="95.50,57.92 106.54,58.34 95.50,57.92" type="building"/>
   <poly color="237,199,199" fill="1" id="172763450" layer="-1.00" shape="768.31,172.98 786.26,129.49 779.36,122.98 786.98,106.70 808.21,115.72 794.29,147.07 803.05,171.80 805.98,186.02 781.79,175.21 780.61,177.87 768.31,172.98" type="amenity"/>
   <poly color="red" fill="1" id="172763450#1" layer="-1.00" shape="768.31,172.98 786.26,129.49 779.36,122.98 786.98,106.70 808.21,115.72 794.29,147.07 803.05,171.80 805.98,186.02 781.79,175.21 780.61,177.87 768.31,172.98" type="building"/>
   <poly color="red" fill="1" id="173185099" layer="-1.00" shape="225.31,325.76 232.52,326.07 232.65,322.85 248.63,323.53 247.66,346.49 238.85,346.13 239.08,340.69 236.72,340.68 232.16,340.41 231.81,348.63 224.36,348.32 225.31,325.76" type="building"/>
   <poly color="red" fill="1" id="173185100" layer="-1.00" shape="390.11,318.09 397.31,318.40 397.45,315.17 413.42,315.84 412.45,338.82 403.64,338.44 403.87,333.02 400.52,332.88 396.95,332.73 396.61,340.96 389.16,340.63 390.11,318.09" type="building"/>
   <poly color="red" fill="1" id="173185101" layer="-1.00" shape="327.49,352.75 334.70,353.06 334.83,349.83 350.80,350.51 349.83,373.47 341.03,373.10 341.26,367.68 337.89,367.54 334.33,367.39 333.99,375.61 326.54,375.30 327.49,352.75" type="building"/>
   <poly color="red" fill="1" id="173185102" layer="-1.00" shape="282.38,301.72 289.58,302.02 289.72,298.80 305.68,299.48 304.72,322.45 295.91,322.08 292.27,316.62 289.22,316.36 288.88,324.59 281.42,324.27 282.38,301.72" type="building"/>
   <poly color="red" fill="1" id="173185104" layer="-1.00" shape="354.64,412.58 361.84,412.87 361.98,409.66 377.94,410.33 376.98,433.30 368.17,432.93 368.40,427.50 365.62,427.39 361.48,427.21 361.13,435.43 353.68,435.12 354.64,412.58" type="building"/>
   <poly color="red" fill="1" id="173185105" layer="-1.00" shape="272.61,397.34 279.81,397.64 279.95,394.42 295.92,395.09 294.95,418.07 286.14,417.69 286.37,412.27 282.68,412.01 279.45,411.97 279.10,420.19 271.65,419.88 272.61,397.34" type="building"/>
   <poly color="red" fill="1" id="173185106" layer="-1.00" shape="141.21,431.54 140.91,445.70 158.78,446.07 158.68,450.91 176.77,451.29 176.67,455.63 196.37,456.04 196.22,463.10 216.85,463.52 217.07,453.55 212.50,453.45 212.59,449.42 198.58,449.12 198.71,442.96 180.08,442.57 180.19,437.22 160.93,436.82 161.03,431.96 141.21,431.54" type="building"/>
   <poly color="red" fill="1" id="173186690" layer="-1.00" shape="274.40,604.86 274.01,617.78 347.40,620.06 347.80,607.13 274.40,604.86" type="building"/>
   <poly color="red" fill="1" id="173186691" layer="-1.00" shape="491.88,632.32 504.16,632.56 505.58,559.31 493.30,559.06 491.88,632.32" type="building"/>
   <poly color="red" fill="1" id="173186692" layer="-1.00" shape="623.98,426.98 619.21,434.94 661.31,460.18 666.08,452.23 623.98,426.98" type="building"/>
   <poly color="red" fill="1" id="173186693" layer="-1.00" shape="422.35,366.64 435.98,367.11 436.05,365.38 477.83,366.82 477.79,368.13 491.90,368.61 492.25,358.64 422.71,356.25 422.35,366.64" type="building"/>
   <poly color="red" fill="1" id="173186694" layer="-1.00" shape="278.49,558.99 286.66,559.25 286.79,555.15 294.78,555.41 294.65,559.35 303.84,559.64 304.44,541.07 279.10,540.25 278.49,558.99" type="building"/>
   <poly color="red" fill="1" id="173186695" layer="-1.00" shape="380.45,609.18 388.62,609.44 388.75,605.34 396.74,605.60 396.62,609.54 405.80,609.83 406.40,591.27 381.06,590.44 380.45,609.18" type="building"/>
   <poly color="red" fill="1" id="173186696" layer="-1.00" shape="421.94,401.64 435.49,402.08 435.55,400.40 477.33,401.77 477.29,403.12 491.42,403.59 491.75,393.56 422.28,391.28 422.10,396.77 421.94,401.64" type="building"/>
   <poly color="red" fill="1" id="173201767" layer="-1.00" shape="789.25,710.24 785.65,720.60 789.25,710.24" type="building"/>
   <poly color="red" fill="1" id="173203414" layer="-1.00" shape="403.18,377.64 403.54,371.48 423.16,372.63 422.80,378.78 403.18,377.64" type="building"/>
   <poly color="red" fill="1" id="173203415" layer="-1.00" shape="548.41,368.66 548.67,362.59 569.82,363.54 569.54,369.61 548.41,368.66" type="building"/>
   <poly color="red" fill="1" id="173203416" layer="-1.00" shape="401.61,424.06 401.80,419.01 422.21,419.78 422.02,424.83 401.61,424.06" type="building"/>
   <poly color="red" fill="1" id="173203417" layer="-1.00" shape="402.25,412.02 402.44,405.86 422.23,406.45 422.05,412.61 402.25,412.02" type="building"/>
   <poly color="red" fill="1" id="173203418" layer="-1.00" shape="508.45,378.67 509.79,343.52 515.81,343.76 514.46,378.90 508.45,378.67" type="building"/>
   <poly color="red" fill="1" id="173203419" layer="-1.00" shape="495.43,378.66 496.81,340.48 502.92,340.71 501.55,378.87 495.43,378.66" type="building"/>
   <poly color="red" fill="1" id="173203420" layer="-1.00" shape="402.45,396.12 402.83,384.58 422.48,385.22 422.28,391.28 422.10,396.77 402.45,396.12" type="building"/>
   <poly color="194,194,130" fill="1" id="176550244" layer="-3.00" shape="0.20,434.39" type="landuse"/>
   <poly color="red" fill="1" id="194133996" layer="-1.00" shape="167.36,556.05 176.94,527.05 201.78,535.21 192.19,564.21 167.36,556.05" type="building"/>
   <poly color="red" fill="0" id="194133997" layer="-1.00" shape="128.91,771.64 181.43,786.95" type="building"/>
   <poly color="red" fill="1" id="194134000" layer="-1.00" shape="120.46,491.30 149.07,500.26 146.46,508.54 170.23,515.99 167.85,523.55 144.43,516.22 130.40,560.82 92.26,548.88 66.20,540.73 77.24,505.65 82.96,487.47 71.57,483.91 84.34,443.34 105.24,449.88 95.11,482.06 105.90,485.44 97.54,512.00 99.89,512.74 91.82,538.39 104.41,542.33 120.46,491.30" type="building"/>
   <poly color="207,245,201" fill="1" id="194134005" layer="-2.00" shape="43.59,616.77 59.44,563.46 166.98,595.25 151.13,648.58 43.59,616.77" type="leisure"/>
   <poly color="79,230,125" fill="1" id="194134005#1" layer="-2.00" shape="43.59,616.77 59.44,563.46 166.98,595.25 151.13,648.58 43.59,616.77" type="sport"/>
   <poly color="184,184,179" fill="1" id="194134007" layer="-1.00" shape="67.92,726.72 52.86,698.24 63.06,692.87 66.23,698.86 71.01,696.34 82.91,718.83 67.92,726.72" type="parking"/>
   <poly color="red" fill="1" id="195981077" layer="-1.00" shape="409.32,743.48 418.68,743.78 418.71,746.78 429.72,746.71 429.68,741.77 430.14,740.95 432.45,741.17 432.97,735.85 425.97,735.40 426.09,731.56 430.96,731.67 431.77,719.74 421.31,719.12 421.05,723.73 410.16,723.49 410.08,727.57 407.02,727.48 406.74,736.29 409.54,736.38 409.32,743.48" type="building"/>
   <poly color="red" fill="1" id="195981078" layer="-1.00" shape="261.35,768.89 211.93,768.24 211.69,786.17 261.12,786.81 261.35,768.89" type="building"/>
   <poly color="red" fill="1" id="195981082" layer="-1.00" shape="336.14,768.19 334.88,801.42 351.30,802.11 352.56,768.87 336.14,768.19" type="building"/>
   <poly color="red" fill="1" id="195981091" layer="-1.00" shape="420.91,770.56 444.38,771.30 444.94,753.68 421.46,752.93 420.91,770.56" type="building"/>
   <poly color="red" fill="1" id="195981093" layer="-1.00" shape="501.63,738.73 494.98,732.37 501.28,725.64 494.05,718.91 487.85,725.55 486.75,724.49 479.95,731.56 494.82,745.81 501.63,738.73" type="building"/>
   <poly color="red" fill="0" id="195982597" layer="-1.00" shape="619.43,809.62 608.32,806.43" type="building"/>
   <poly color="red" fill="1" id="195982600" layer="-1.00" shape="613.99,602.33 610.74,607.56 634.32,622.15 637.57,616.94 613.99,602.33" type="building"/>
   <poly color="red" fill="1" id="195982601" layer="-1.00" shape="618.88,590.81 615.97,595.57 640.33,610.36 643.24,605.59 618.88,590.81" type="building"/>
   <poly color="red" fill="1" id="202587954" layer="-1.00" shape="194.76,486.36 192.22,493.04 197.61,495.09 200.16,488.40 194.76,486.36" type="building"/>
   <poly color="red" fill="1" id="202591078" layer="-1.00" shape="386.61,155.59 384.06,154.66 380.53,164.31 399.95,171.36 403.46,161.71 399.68,160.34 407.78,136.22 349.61,118.53 321.34,162.15 331.45,168.67 354.04,133.80 390.23,144.80 386.61,155.59" type="building"/>
   <poly color="red" fill="1" id="202591080" layer="-1.00" shape="309.69,198.60 378.50,213.55 377.29,224.54 390.95,226.04 393.40,203.92 305.13,184.72 287.23,215.00 296.70,220.56 297.95,218.45 302.16,220.72 306.96,211.86 303.08,209.77 309.69,198.60" type="building"/>
   <poly color="red" fill="1" id="202591110" layer="-1.00" shape="139.07,206.03 156.78,207.13 157.32,198.39 139.61,197.29 139.07,206.03" type="building"/>
   <poly color="red" fill="1" id="202591118" layer="-1.00" shape="196.00,208.63 230.12,209.70 230.39,201.14 196.27,200.06 196.00,208.63" type="building"/>
   <poly color="red" fill="1" id="202591161" layer="-1.00" shape="159.47,206.94 192.51,208.25 192.86,199.43 159.83,198.12 159.47,206.94" type="building"/>
   <poly color="red" fill="1" id="202591198" layer="-1.00" shape="137.62,226.37 244.77,231.08 245.18,221.70 138.04,216.97 137.62,226.37" type="building"/>
   <poly color="red" fill="1" id="202591239" layer="-1.00" shape="233.05,210.33 240.03,210.82 240.69,201.50 233.71,201.02 233.05,210.33" type="building"/>
   <poly color="red" fill="1" id="202592349" layer="-1.00" shape="251.55,66.26 254.16,66.51 255.47,52.97 252.86,52.72 251.55,66.26" type="building"/>
   <poly color="red" fill="1" id="202592350" layer="-1.00" shape="184.51,119.92 182.23,132.45 193.14,134.42 195.42,121.88 184.51,119.92" type="building"/>
   <poly color="red" fill="0" id="202592351" layer="-1.00" shape="16.07,150.23 17.94,130.77 9.34,129.95" type="building"/>
   <poly color="red" fill="0" id="202592352" layer="-1.00" shape="9.89,200.36 10.28,190.45" type="building"/>
   <poly color="red" fill="0" id="202592353" layer="-1.00" shape="42.60,223.11 43.13,212.40" type="building"/>
   <poly color="red" fill="1" id="202592354" layer="-1.00" shape="72.57,201.32 109.30,204.89 110.08,196.91 73.35,193.34 72.57,201.32" type="building"/>
   <poly color="red" fill="1" id="202592355" layer="-1.00" shape="255.20,97.95 242.20,109.76 303.75,127.79 310.03,116.03 255.20,97.95" type="building"/>
   <poly color="red" fill="1" id="202592356" layer="-1.00" shape="27.48,172.02 36.61,172.90 37.98,158.70 28.85,157.83 27.48,172.02" type="building"/>
   <poly color="red" fill="1" id="202592358" layer="-1.00" shape="271.73,187.76 280.15,174.38 186.22,159.62 171.12,171.72 271.73,187.76" type="building"/>
   <poly color="red" fill="1" id="202592360" layer="-1.00" shape="30.59,151.84 38.01,152.55 39.95,132.42 32.53,131.70 30.59,151.84" type="building"/>
   <poly color="red" fill="1" id="202592361" layer="-1.00" shape="87.86,159.97 157.66,172.10 166.38,164.62 89.34,151.46 87.86,159.97" type="building"/>
   <poly color="red" fill="1" id="202592362" layer="-1.00" shape="295.40,145.06 223.83,128.87 209.52,139.77 288.56,157.55 295.40,145.06" type="building"/>
   <poly color="red" fill="1" id="202592363" layer="-1.00" shape="12.96,190.81 12.52,199.92 46.36,201.52 46.79,192.41 12.96,190.81" type="building"/>
   <poly color="red" fill="1" id="202592364" layer="-1.00" shape="50.80,174.28 59.20,175.09 63.07,135.04 54.66,134.23 50.80,174.28" type="building"/>
   <poly color="red" fill="1" id="202592365" layer="-1.00" shape="187.23,110.34 188.81,103.49 168.52,98.82 166.94,105.69 187.23,110.34" type="building"/>
   <poly color="red" fill="0" id="202592367" layer="-1.00" shape="13.66,171.18 15.02,157.03" type="building"/>
   <poly color="red" fill="1" id="202592369" layer="-1.00" shape="56.78,233.00 87.75,219.70 84.36,211.86 56.31,222.16 55.02,225.78 56.78,233.00" type="building"/>
   <poly color="red" fill="1" id="202592370" layer="-1.00" shape="146.40,125.96 179.50,131.69 181.21,122.23 158.16,118.10 161.00,100.37 150.75,98.74 146.40,125.96" type="building"/>
   <poly color="red" fill="1" id="202592371" layer="-1.00" shape="207.68,55.71 207.48,58.28 216.82,59.00 217.74,46.95 210.68,46.42 211.71,6.75 199.38,6.42 198.11,55.45 207.68,55.71" type="building"/>
   <poly color="red" fill="1" id="202592372" layer="-1.00" shape="223.27,59.20 235.62,59.59 235.73,56.37 241.90,56.56 243.38,9.69 229.68,9.26 228.42,49.17 223.59,49.02 223.27,59.20" type="building"/>
   <poly color="red" fill="1" id="202592373" layer="-1.00" shape="142.12,48.60 153.13,48.95 153.37,41.44 147.70,41.26 148.61,4.73 135.17,4.40 134.17,44.85 142.23,45.05 142.12,48.60" type="building"/>
   <poly color="red" fill="1" id="202592374" layer="-1.00" shape="171.86,46.39 177.95,46.50 178.72,4.97 165.28,4.71 164.63,39.09 159.64,38.69 158.76,49.39 171.53,50.43 171.86,46.39" type="building"/>
   <poly color="184,184,179" fill="0" id="202592375" layer="-1.00" shape="66.36,188.38 66.89,182.90" type="parking"/>
   <poly color="red" fill="1" id="204364685" layer="-1.00" shape="190.94,513.05 199.62,515.67 204.64,499.19 195.96,496.57 190.94,513.05" type="building"/>
   <poly color="red" fill="1" id="206286582" layer="-1.00" shape="761.77,749.32 767.48,752.34 780.42,728.04 774.71,725.03 761.77,749.32" type="building"/>
   <poly color="red" fill="1" id="206286584" layer="-1.00" shape="719.18,761.36 715.60,759.88 712.42,767.53 716.01,769.01 719.18,761.36" type="building"/>
   <poly color="red" fill="1" id="206286585" layer="-1.00" shape="577.76,742.63 571.10,748.86 574.67,752.66 581.34,746.43 577.76,742.63" type="building"/>
   <poly color="red" fill="1" id="206286586" layer="-1.00" shape="691.01,591.61 688.30,589.95 674.37,612.37 677.08,614.04 691.01,591.61" type="building"/>
   <poly color="red" fill="1" id="206286588" layer="-1.00" shape="748.82,780.30 753.68,782.34 758.22,771.60 753.36,769.55 748.82,780.30" type="building"/>
   <poly color="red" fill="1" id="206286589" layer="-1.00" shape="771.91,536.44 769.11,534.82 756.36,556.78 759.17,558.40 771.91,536.44" type="building"/>
   <poly color="red" fill="1" id="206286593" layer="-1.00" shape="733.00,565.74 730.42,564.16 716.84,586.09 719.41,587.67 733.00,565.74" type="building"/>
   <poly color="red" fill="0" id="206286595" layer="-1.00" shape="789.47,525.00 792.80,526.92" type="building"/>
   <poly color="red" fill="1" id="206286597" layer="-1.00" shape="778.48,597.19 775.28,602.79 780.41,605.70 783.61,600.10 778.48,597.19" type="building"/>
   <poly color="red" fill="1" id="206286598" layer="-1.00" shape="765.83,713.85 769.45,715.29 772.41,707.84 768.79,706.41 765.83,713.85" type="building"/>
   <poly color="red" fill="1" id="206286600" layer="-1.00" shape="787.67,673.93 783.64,671.98 779.82,679.82 783.85,681.77 787.67,673.93" type="building"/>
   <poly color="red" fill="1" id="206286601" layer="-1.00" shape="679.23,750.25 676.61,756.28 709.95,770.73 712.57,764.72 679.23,750.25" type="building"/>
   <poly color="red" fill="1" id="206286603" layer="-1.00" shape="749.96,750.82 746.29,748.74 742.02,756.22 745.69,758.31 749.96,750.82" type="building"/>
   <poly color="red" fill="1" id="206286604" layer="-1.00" shape="737.92,773.05 740.47,765.60 735.56,763.93 733.02,771.38 737.92,773.05" type="building"/>
   <poly color="red" fill="1" id="206286605" layer="-1.00" shape="767.43,588.88 764.23,594.49 769.36,597.40 772.56,591.79 767.43,588.88" type="building"/>
   <poly color="red" fill="1" id="206286607" layer="-1.00" shape="783.12,704.78 788.77,707.10 783.12,704.78" type="building"/>
   <poly color="red" fill="1" id="206286609" layer="-1.00" shape="720.77,789.03 715.06,805.36 722.73,808.03 724.75,802.25 785.84,811.67 720.77,789.03" type="building"/>
   <poly color="red" fill="1" id="206286610" layer="-1.00" shape="577.61,766.76 582.60,760.90 572.97,752.76 568.63,757.87 561.62,751.25 555.33,757.88 568.11,769.93 574.01,763.72 577.61,766.76" type="building"/>
   <poly color="red" fill="1" id="206286611" layer="-1.00" shape="489.96,665.21 479.13,676.62 520.69,715.64 532.73,704.37 530.54,681.29 503.92,678.38 489.96,665.21" type="building"/>
   <poly color="237,199,255" fill="1" id="206286611#1" layer="-1.00" shape="489.96,665.21 479.13,676.62 520.69,715.64 532.73,704.37 530.54,681.29 503.92,678.38 489.96,665.21" type="shop"/>
   <poly color="red" fill="1" id="206392751" layer="-1.00" shape="478.69,530.38 471.63,530.32 471.39,558.65 478.44,558.72 478.69,530.38" type="building"/>
   <poly color="red" fill="1" id="206392754" layer="-1.00" shape="491.59,531.11 484.84,531.06 484.62,558.42 491.37,558.48 491.59,531.11" type="building"/>
   <poly color="red" fill="1" id="206392756" layer="-1.00" shape="299.17,450.39 304.99,450.57 305.59,431.94 299.76,431.76 299.17,450.39" type="building"/>
   <poly color="red" fill="1" id="206392758" layer="-1.00" shape="450.49,493.50 443.74,493.45 443.52,520.81 450.27,520.87 450.49,493.50" type="building"/>
   <poly color="red" fill="1" id="206392759" layer="-1.00" shape="332.31,451.90 339.54,452.13 340.12,433.97 332.89,433.74 332.31,451.90" type="building"/>
   <poly color="red" fill="1" id="206392760" layer="-1.00" shape="534.97,579.18 528.22,579.13 528.00,606.49 534.75,606.55 534.97,579.18" type="building"/>
   <poly color="red" fill="1" id="206392761" layer="-1.00" shape="481.57,469.52 486.80,469.79 488.00,446.36 482.77,446.09 481.57,469.52" type="building"/>
   <poly color="red" fill="1" id="206392764" layer="-1.00" shape="462.40,468.91 473.81,469.27 474.58,444.92 463.17,444.56 462.40,468.91" type="building"/>
   <poly color="red" fill="1" id="206392765" layer="-1.00" shape="312.69,451.28 325.30,451.69 325.88,433.29 313.28,432.89 312.69,451.28" type="building"/>
   <poly color="red" fill="1" id="206392766" layer="-1.00" shape="454.44,467.97 455.19,444.31 449.48,444.13 448.73,467.79 454.44,467.97" type="building"/>
   <poly color="red" fill="1" id="206392767" layer="-1.00" shape="522.07,578.45 515.02,578.39 514.76,606.72 521.82,606.78 522.07,578.45" type="building"/>
   <poly color="red" fill="1" id="206392768" layer="-1.00" shape="437.59,492.77 430.53,492.71 430.28,521.04 437.34,521.10 437.59,492.77" type="building"/>
   <poly color="red" fill="1" id="206393978" layer="-1.00" shape="762.05,278.63 771.48,282.50 800.16,212.98 790.73,209.11 762.05,278.63" type="building"/>
   <poly color="red" fill="1" id="206393990" layer="-1.00" shape="764.87,107.01 779.51,112.57 782.90,103.68 768.26,98.13 764.87,107.01" type="building"/>
   <poly color="red" fill="1" id="206393998" layer="-1.00" shape="723.90,263.90 733.17,267.41 759.62,198.11 750.36,194.59 723.90,263.90" type="building"/>
   <poly color="red" fill="1" id="206394001" layer="-1.00" shape="640.87,67.71 632.58,64.57 611.93,118.67 620.23,121.82 640.87,67.71" type="building"/>
   <poly color="red" fill="1" id="206394007" layer="-1.00" shape="765.91,305.29 761.51,316.82 797.12,330.34 801.52,318.80 765.91,305.29" type="building"/>
   <poly color="red" fill="1" id="206394009" layer="-1.00" shape="802.75,229.45 800.57,235.13 802.75,229.45" type="building"/>
   <poly color="red" fill="1" id="206394010" layer="-1.00" shape="715.71,143.44 713.32,149.70 735.68,158.19 738.07,151.93 715.71,143.44" type="building"/>
   <poly color="red" fill="1" id="206394018" layer="-1.00" shape="679.04,81.93 668.49,77.92 652.77,119.11 663.32,123.12 679.04,81.93" type="building"/>
   <poly color="red" fill="0" id="206394021" layer="-1.00" shape="797.48,241.82 794.87,248.64" type="building"/>
   <poly color="red" fill="1" id="206394026" layer="-1.00" shape="720.85,129.55 717.79,137.56 740.30,146.10 743.35,138.10 720.85,129.55" type="building"/>
   <poly color="red" fill="1" id="206394029" layer="-1.00" shape="603.68,55.61 593.05,51.57 569.82,112.45 580.45,116.48 603.68,55.61" type="building"/>
   <poly color="red" fill="1" id="206394030" layer="-1.00" shape="693.48,252.53 722.74,181.60 713.26,177.71 684.00,248.64 693.48,252.53" type="building"/>
   <poly color="red" fill="1" id="206394035" layer="-1.00" shape="750.54,147.67 747.00,156.94 757.63,160.97 761.17,151.70 750.54,147.67" type="building"/>
   <poly color="237,199,199" fill="1" id="206394040" layer="-1.00" shape="788.03,79.87 787.21,82.72 796.53,85.41 799.01,76.84 796.98,76.25 800.68,64.93 780.05,58.21 779.32,60.46 771.75,57.94 769.02,66.13 766.42,65.33 764.30,72.06 788.03,79.87" type="amenity"/>
   <poly color="red" fill="1" id="206394040#1" layer="-1.00" shape="788.03,79.87 787.21,82.72 796.53,85.41 799.01,76.84 796.98,76.25 800.68,64.93 780.05,58.21 779.32,60.46 771.75,57.94 769.02,66.13 766.42,65.33 764.30,72.06 788.03,79.87" type="building"/>
   <poly color="red" fill="1" id="206405969" layer="-1.00" shape="569.95,203.00 569.87,207.44 588.39,207.78 588.46,204.20 590.49,204.15 590.29,194.92 588.63,194.96 588.80,185.85 570.27,185.51 570.12,194.04 565.95,194.19 566.30,203.14 569.95,203.00" type="building"/>
   <poly color="red" fill="1" id="206405970" layer="-1.00" shape="638.37,169.58 618.26,161.47 609.97,181.83 617.06,184.54 621.34,173.35 636.29,179.38 638.54,173.82 648.26,177.53 643.37,188.57 652.60,192.64 659.18,177.80 658.78,177.62 662.28,168.48 641.78,160.68 638.37,169.58" type="building"/>
   <poly color="red" fill="1" id="206405973" layer="-1.00" shape="530.36,206.69 532.21,155.99 521.00,155.58 521.29,152.03 461.65,147.32 450.00,145.50 445.65,173.29 439.74,173.27 439.69,182.38 457.98,182.47 458.02,173.35 460.23,159.23 519.56,163.92 518.39,196.33 512.66,196.03 512.07,206.84 521.66,207.37 521.71,206.37 530.36,206.69" type="building"/>
   <poly color="red" fill="1" id="206405976" layer="-1.00" shape="598.58,246.59 590.08,243.23 577.79,274.18 492.53,248.88 492.91,236.96 493.55,225.00 472.15,223.85 472.17,220.54 444.41,220.32 444.63,217.83 433.49,216.85 431.81,236.01 421.70,235.34 420.92,247.26 442.62,248.68 443.40,236.76 442.97,236.74 443.37,232.12 470.64,232.34 470.46,235.76 479.09,236.22 478.31,260.90 485.42,261.12 484.88,262.89 584.28,292.40 587.57,281.37 588.16,281.60 598.50,255.55 636.76,275.01 642.19,264.39 600.37,243.11 598.58,246.59" type="building"/>
   <poly color="red" fill="1" id="206405984" layer="-1.00" shape="503.96,278.21 476.03,270.67 474.59,276.00 502.52,283.53 503.96,278.21" type="building"/>
   <poly color="red" fill="1" id="206405987" layer="-1.00" shape="642.46,201.85 632.40,228.11 641.49,231.57 651.55,205.31 642.46,201.85" type="building"/>
   <poly color="red" fill="1" id="206405989" layer="-1.00" shape="670.65,336.70 693.55,346.78 695.46,342.48 672.55,332.40 670.65,336.70" type="building"/>
   <poly color="red" fill="1" id="206405991" layer="-1.00" shape="386.48,250.11 373.47,247.48 372.60,251.76 385.61,254.39 386.48,250.11" type="building"/>
   <poly color="red" fill="1" id="206405992" layer="-1.00" shape="566.24,301.37 537.18,290.59 535.11,296.13 564.18,306.91 566.24,301.37" type="building"/>
   <poly color="red" fill="1" id="206405993" layer="-1.00" shape="693.05,285.13 687.38,298.05 738.58,320.38 744.25,307.44 693.05,285.13" type="building"/>
   <poly color="red" fill="1" id="206405994" layer="-1.00" shape="695.04,354.72 692.84,359.96 715.27,369.30 717.47,364.05 695.04,354.72" type="building"/>
   <poly color="red" fill="1" id="206405996" layer="-1.00" shape="351.35,243.58 333.64,240.80 332.85,245.81 350.56,248.58 351.35,243.58" type="building"/>
   <poly color="red" fill="1" id="206405998" layer="-1.00" shape="751.43,368.57 747.45,377.77 756.72,381.76 760.69,372.56 751.43,368.57" type="building"/>
   <poly color="red" fill="1" id="206405999" layer="-1.00" shape="471.47,201.13 444.29,201.01 444.28,205.73 471.45,205.85 471.47,201.13" type="building"/>
   <poly color="red" fill="1" id="206406001" layer="-1.00" shape="650.58,329.07 665.23,334.46 667.06,329.51 652.40,324.12 650.58,329.07" type="building"/>
   <poly color="red" fill="1" id="206406003" layer="-1.00" shape="620.36,189.33 614.47,187.08 603.98,214.50 609.87,216.74 620.36,189.33" type="building"/>
   <poly color="red" fill="1" id="206406006" layer="-1.00" shape="470.32,271.24 447.77,265.59 446.50,270.64 469.06,276.28 470.32,271.24" type="building"/>
   <poly color="red" fill="1" id="206406011" layer="-1.00" shape="636.76,329.71 613.58,320.35 611.40,325.74 634.58,335.09 636.76,329.71" type="building"/>
   <poly color="red" fill="1" id="206406013" layer="-1.00" shape="636.62,198.95 627.01,195.08 615.74,222.90 625.34,226.77 636.62,198.95" type="building"/>
   <poly color="red" fill="1" id="206406015" layer="-1.00" shape="731.91,360.81 728.18,369.63 737.69,373.62 741.42,364.81 731.91,360.81" type="building"/>
   <poly color="red" fill="1" id="206406018" layer="-1.00" shape="629.59,306.33 625.35,315.55 632.08,318.64 636.32,309.40 629.59,306.33" type="building"/>
   <poly color="red" fill="1" id="206406020" layer="-1.00" shape="531.55,288.69 509.10,279.85 507.32,284.34 529.78,293.18 531.55,288.69" type="building"/>
   <poly color="red" fill="1" id="206406023" layer="-1.00" shape="444.32,265.24 420.05,259.30 419.04,263.36 443.32,269.30 444.32,265.24" type="building"/>
   <poly color="red" fill="1" id="206406025" layer="-1.00" shape="692.31,300.99 679.20,295.51 665.46,328.26 678.56,333.73 692.31,300.99" type="building"/>
   <poly color="red" fill="1" id="206406027" layer="-1.00" shape="769.67,376.76 766.71,384.74 776.11,388.20 779.06,380.23 769.67,376.76" type="building"/>
   <poly color="red" fill="1" id="206406029" layer="-1.00" shape="647.73,334.50 645.51,339.62 689.40,358.50 691.61,353.37 647.73,334.50" type="building"/>
   <poly color="red" fill="1" id="206406032" layer="-1.00" shape="369.78,246.87 355.76,244.45 354.93,249.33 368.93,251.75 369.78,246.87" type="building"/>
   <poly color="red" fill="1" id="206406034" layer="-1.00" shape="508.04,201.30 477.17,200.57 477.06,205.50 507.92,206.23 508.04,201.30" type="building"/>
   <poly color="red" fill="1" id="206406036" layer="-1.00" shape="618.50,313.37 624.09,300.73 618.43,298.24 612.84,310.87 618.50,313.37" type="building"/>
   <poly color="red" fill="1" id="206406039" layer="-1.00" shape="328.72,240.15 316.70,237.56 315.83,241.54 327.86,244.13 328.72,240.15" type="building"/>
   <poly color="red" fill="1" id="206406040" layer="-1.00" shape="607.74,317.47 571.12,303.49 569.19,308.67 605.81,322.63 607.74,317.47" type="building"/>
   <poly color="red" fill="1" id="206406042" layer="-1.00" shape="627.92,296.66 630.00,292.07 614.69,285.41 604.77,309.97 609.31,311.80 617.33,291.91 627.92,296.66" type="building"/>
   <poly color="red" fill="1" id="206406044" layer="-1.00" shape="606.66,174.43 611.30,176.31 617.44,161.19 593.66,151.61 587.53,166.73 598.47,171.13 594.71,180.96 602.95,184.10 606.66,174.43" type="building"/>
   <poly color="red" fill="0" id="206406047" layer="-1.00" shape="802.01,378.73 795.73,394.20" type="building"/>
   <poly color="red" fill="1" id="206413833" layer="-1.00" shape="524.03,100.42 532.27,103.56 540.34,81.87 526.03,76.10 524.63,79.56 519.41,77.44 510.99,97.98 517.87,100.78 520.95,93.28 525.98,95.31 524.03,100.42" type="building"/>
   <poly color="red" fill="1" id="206413834" layer="-1.00" shape="502.99,73.50 503.97,70.43 498.60,68.72 497.64,71.76 491.54,69.78 478.83,108.62 485.24,110.70 484.34,113.51 489.71,115.22 490.59,112.44 495.49,114.03 508.19,75.19 502.99,73.50" type="building"/>