<?xml version="1.0" encoding="utf-8"?><!-- generated on 10/11/17 17:54:56 by SUMO netconvert Version 0.25.0
<?xml version="1.0" encoding="UTF-8"?>

<configuration xmlns:xsi="http://www.w3.org/2001/XMLSchema-instance" xsi:noNamespaceSchemaLocation="http://sumo.dlr.de/xsd/netconvertConfiguration.xsd">

    <input>
        <type-files value="osmNetconvert.typ.xml"/>
        <osm-files value="IN_RWStr_urban_800.osm"/>
    </input>

    <output>
        <output-file value="IN_RWStr_urban_800.net.xml"/>
    </output>

    <projection>
        <proj.utm value="true"/>
    </projection>

    <edge_removal>
        <remove-edges.by-type value="highway.track,highway.unsurfaced,highway.raceway,highway.bridleway,highway.path,highway.footway,highway.pedestrian,highway.cycleway,highway.step,highway.steps,highway.stairs,highway.bus_guideway,highway.ford,railway.rail,railway.tram,railway.light_rail,railway.subway,railway.preserved,railway.narrow_gauge,railway.monorail,railway.funicular"/>
    </edge_removal>

</configuration>
-->
<net version="0.25">
   <location convBoundary="0.00,0.00,804.09,805.03" netOffset="-676186.01,-5404797.90" origBoundary="11.398103,48.771151,11.409012,48.778321" projParameter="+proj=utm +zone=32 +ellps=WGS84 +datum=WGS84 +units=m +no_defs"/>
   <type allow="pedestrian" id="highway.bridleway" numLanes="1" oneway="1" priority="1" speed="2.78" width="2.00"/>
   <type allow="bus" id="highway.bus_guideway" numLanes="1" oneway="1" priority="1" speed="8.33"/>
   <type allow="bicycle" id="highway.cycleway" numLanes="1" oneway="0" priority="1" speed="5.56" width="1.00"/>
   <type allow="pedestrian" id="highway.footway" numLanes="1" oneway="1" priority="1" speed="8.33" width="2.00"/>
   <type allow="army" id="highway.ford" numLanes="1" oneway="0" priority="1" speed="2.78"/>
   <type disallow="tram rail_urban rail rail_electric ship" id="highway.living_street" numLanes="1" oneway="0" priority="3" speed="2.78"/>
   <type allow="private emergency authority army vip passenger hov taxi bus coach delivery truck trailer motorcycle evehicle custom1 custom2" id="highway.motorway" numLanes="2" oneway="1" priority="13" speed="44.44"/>
   <type allow="private emergency authority army vip passenger hov taxi bus coach delivery truck trailer motorcycle evehicle custom1 custom2" id="highway.motorway_link" numLanes="1" oneway="1" priority="12" speed="22.22"/>
   <type allow="bicycle pedestrian" id="highway.path" numLanes="1" oneway="1" priority="1" speed="2.78" width="2.00"/>
   <type allow="pedestrian" id="highway.pedestrian" numLanes="1" oneway="1" priority="1" speed="8.33" width="2.00"/>
   <type disallow="tram rail_urban rail rail_electric ship" id="highway.primary" numLanes="2" oneway="0" priority="9" speed="27.78"/>
   <type disallow="tram rail_urban rail rail_electric ship" id="highway.primary_link" numLanes="1" oneway="0" priority="8" speed="22.22"/>
   <type allow="vip" id="highway.raceway" numLanes="2" oneway="0" priority="14" speed="83.33"/>
   <type disallow="tram rail_urban rail rail_electric ship" id="highway.residential" numLanes="1" oneway="0" priority="4" speed="13.89"/>
   <type disallow="tram rail_urban rail rail_electric ship" id="highway.secondary" numLanes="2" oneway="0" priority="7" speed="27.78"/>
   <type disallow="tram rail_urban rail rail_electric ship" id="highway.secondary_link" numLanes="1" oneway="0" priority="6" speed="22.22"/>
   <type allow="delivery bicycle pedestrian" id="highway.service" numLanes="1" oneway="0" priority="2" speed="5.56"/>
   <type disallow="tram rail_urban rail rail_electric ship" id="highway.services" numLanes="1" oneway="0" priority="1" speed="8.33"/>
   <type allow="pedestrian" id="highway.stairs" numLanes="1" oneway="1" priority="1" speed="1.39" width="2.00"/>
   <type allow="pedestrian" id="highway.step" numLanes="1" oneway="1" priority="1" speed="1.39" width="2.00"/>
   <type allow="pedestrian" id="highway.steps" numLanes="1" oneway="1" priority="1" speed="1.39" width="2.00"/>
   <type disallow="tram rail_urban rail rail_electric ship" id="highway.tertiary" numLanes="1" oneway="0" priority="6" speed="22.22"/>
   <type disallow="tram rail_urban rail rail_electric ship" id="highway.tertiary_link" numLanes="1" oneway="0" priority="5" speed="22.22"/>
   <type disallow="tram rail_urban rail rail_electric ship" id="highway.track" numLanes="1" oneway="0" priority="1" speed="5.56"/>
   <type disallow="tram rail_urban rail rail_electric bicycle pedestrian ship" id="highway.trunk" numLanes="2" oneway="0" priority="11" speed="27.78"/>
   <type disallow="tram rail_urban rail rail_electric bicycle pedestrian ship" id="highway.trunk_link" numLanes="1" oneway="0" priority="10" speed="22.22"/>
   <type disallow="tram rail_urban rail rail_electric ship" id="highway.unclassified" numLanes="1" oneway="0" priority="5" speed="13.89"/>
   <type disallow="tram rail_urban rail rail_electric ship" id="highway.unsurfaced" numLanes="1" oneway="0" priority="1" speed="8.33"/>
   <type allow="rail_urban" id="railway.light_rail" numLanes="1" oneway="1" priority="15" speed="27.78"/>
   <type allow="rail" id="railway.preserved" numLanes="1" oneway="1" priority="15" speed="27.78"/>
   <type allow="rail rail_electric" id="railway.rail" numLanes="1" oneway="1" priority="15" speed="83.33"/>
   <type allow="rail_urban" id="railway.subway" numLanes="1" oneway="1" priority="15" speed="27.78"/>
   <type allow="tram" id="railway.tram" numLanes="1" oneway="1" priority="15" speed="13.89"/>
   <edge function="internal" id=":1137585389_0">
      <lane disallow="tram rail_urban rail rail_electric ship" id=":1137585389_0_0" index="0" length="5.05" shape="24.59,696.21 23.25,695.85 22.15,696.02 21.27,696.74 20.63,697.99" speed="13.89"/>
   </edge>
   <edge function="internal" id=":1137585389_1">
      <lane disallow="tram rail_urban rail rail_electric ship" id=":1137585389_1_0" index="0" length="9.87" shape="24.59,696.21 22.15,694.80 20.50,693.05 19.66,690.97 19.62,688.56" speed="13.89"/>
   </edge>
   <edge function="internal" id=":1137585389_2">
      <lane disallow="tram rail_urban rail rail_electric ship" id=":1137585389_2_0" index="0" length="4.82" shape="24.59,696.21 23.79,694.96 23.74,694.04 24.45,693.45 25.92,693.19" speed="13.89"/>
   </edge>
   <edge function="internal" id=":1137585389_3">
      <lane disallow="tram rail_urban rail rail_electric ship" id=":1137585389_3_0" index="0" length="5.57" shape="22.89,689.01 22.94,690.28 23.46,691.40 24.45,692.37 25.92,693.19" speed="13.89"/>
   </edge>
   <edge function="internal" id=":1137585389_4">
      <lane disallow="tram rail_urban rail rail_electric ship" id=":1137585389_4_0" index="0" length="9.26" shape="22.89,689.01 20.63,697.99" speed="13.89"/>
   </edge>
   <edge function="internal" id=":1137585389_5">
      <lane disallow="tram rail_urban rail rail_electric ship" id=":1137585389_5_0" index="0" length="2.65" shape="22.89,689.01 21.90,690.13 21.03,690.42 20.83,690.29" speed="13.89"/>
   </edge>
   <edge function="internal" id=":1137585389_9">
      <lane id=":1137585389_9_0" index="0" length="2.17" shape="20.83,690.29 20.26,689.90 19.62,688.56" speed="13.89"/>
   </edge>
   <edge function="internal" id=":1137585389_6">
      <lane disallow="tram rail_urban rail rail_electric ship" id=":1137585389_6_0" index="0" length="8.62" shape="17.51,696.92 19.62,688.56" speed="13.89"/>
   </edge>
   <edge function="internal" id=":1137585389_7">
      <lane disallow="tram rail_urban rail rail_electric ship" id=":1137585389_7_0" index="0" length="4.67" shape="17.51,696.92 18.87,694.27 20.18,693.20" speed="13.89"/>
   </edge>
   <edge function="internal" id=":1137585389_8">
      <lane disallow="tram rail_urban rail rail_electric ship" id=":1137585389_8_0" index="0" length="2.30" shape="17.51,696.92 18.69,696.02 19.50,695.91" speed="13.89"/>
   </edge>
   <edge function="internal" id=":1137585389_10">
      <lane id=":1137585389_10_0" index="0" length="6.02" shape="20.18,693.20 20.72,692.77 23.07,692.41 25.92,693.19" speed="13.89"/>
   </edge>
   <edge function="internal" id=":1137585389_11">
      <lane id=":1137585389_11_0" index="0" length="2.52" shape="19.50,695.91 19.61,695.90 20.25,696.56 20.63,697.99" speed="13.89"/>
   </edge>
   <edge function="internal" id=":1204698346_0">
      <lane disallow="tram rail_urban rail rail_electric ship" id=":1204698346_0_0" index="0" length="0.14" shape="426.62,304.13 426.44,304.09" speed="13.89"/>
      <lane disallow="tram rail_urban rail rail_electric ship" id=":1204698346_0_1" index="1" length="0.14" shape="427.36,300.91 427.31,300.90" speed="13.89"/>
   </edge>
   <edge function="internal" id=":1423242703_0">
      <lane disallow="tram rail_urban rail rail_electric ship" id=":1423242703_0_0" index="0" length="4.82" shape="220.50,2.40 221.36,1.18 222.19,0.79 223.00,1.23 223.80,2.49" speed="2.78"/>
   </edge>
   <edge function="internal" id=":1423242727_0">
      <lane disallow="tram rail_urban rail rail_electric ship" id=":1423242727_0_0" index="0" length="11.21" shape="167.84,63.96 164.69,63.74 162.25,63.73 159.80,63.84 156.64,63.98" speed="13.89"/>
   </edge>
   <edge function="internal" id=":1423242727_1">
      <lane disallow="tram rail_urban rail rail_electric ship" id=":1423242727_1_0" index="0" length="12.41" shape="167.84,63.96 164.70,63.16 162.40,61.59 160.38,59.43 158.12,56.85" speed="8.34"/>
   </edge>
   <edge function="internal" id=":1423242727_2">
      <lane disallow="tram rail_urban rail rail_electric ship" id=":1423242727_2_0" index="0" length="2.41" shape="167.84,63.96 166.69,63.02 166.35,62.16" speed="13.89"/>
   </edge>
   <edge function="internal" id=":1423242727_9">
      <lane id=":1423242727_9_0" index="0" length="2.41" shape="166.35,62.16 166.84,61.38 168.16,60.67" speed="13.89"/>
   </edge>
   <edge function="internal" id=":1423242727_3">
      <lane disallow="tram rail_urban rail rail_electric ship" id=":1423242727_3_0" index="0" length="9.77" shape="160.52,54.58 168.16,60.67" speed="8.34"/>
   </edge>
   <edge function="internal" id=":1423242727_4">
      <lane disallow="tram rail_urban rail rail_electric ship" id=":1423242727_4_0" index="0" length="15.68" shape="160.52,54.58 163.46,58.55 163.79,61.43 161.52,63.25 156.64,63.98" speed="8.34"/>
   </edge>
   <edge function="internal" id=":1423242727_5">
      <lane disallow="tram rail_urban rail rail_electric ship" id=":1423242727_5_0" index="0" length="4.82" shape="160.52,54.58 160.77,56.05 160.45,56.92 159.57,57.18 158.12,56.85" speed="2.78"/>
   </edge>
   <edge function="internal" id=":1423242727_6">
      <lane disallow="tram rail_urban rail rail_electric ship" id=":1423242727_6_0" index="0" length="6.40" shape="156.53,60.68 158.52,60.38 159.45,59.64 159.32,58.46 158.12,56.85" speed="8.34"/>
   </edge>
   <edge function="internal" id=":1423242727_7">
      <lane disallow="tram rail_urban rail rail_electric ship" id=":1423242727_7_0" index="0" length="11.64" shape="156.53,60.68 159.76,60.55 162.35,60.44 164.94,60.45 168.16,60.67" speed="13.89"/>
   </edge>
   <edge function="internal" id=":1423242727_8">
      <lane disallow="tram rail_urban rail rail_electric ship" id=":1423242727_8_0" index="0" length="2.41" shape="156.53,60.68 157.80,61.47 158.23,62.28" speed="13.89"/>
   </edge>
   <edge function="internal" id=":1423242727_10">
      <lane id=":1423242727_10_0" index="0" length="2.41" shape="158.23,62.28 157.85,63.12 156.64,63.98" speed="13.89"/>
   </edge>
   <edge function="internal" id=":1423242728_0">
      <lane disallow="tram rail_urban rail rail_electric ship" id=":1423242728_0_0" index="0" length="9.54" shape="224.15,73.20 214.79,71.37" speed="13.89"/>
   </edge>
   <edge function="internal" id=":1423242728_1">
      <lane disallow="tram rail_urban rail rail_electric ship" id=":1423242728_1_0" index="0" length="4.89" shape="224.15,73.20 221.75,72.29 220.07,70.69" speed="8.34"/>
   </edge>
   <edge function="internal" id=":1423242728_2">
      <lane disallow="tram rail_urban rail rail_electric ship" id=":1423242728_2_0" index="0" length="2.41" shape="224.15,73.20 223.10,72.15 222.86,71.25" speed="13.89"/>
   </edge>
   <edge function="internal" id=":1423242728_9">
      <lane id=":1423242728_9_0" index="0" length="5.52" shape="220.07,70.69 219.09,68.38 218.82,65.38" speed="8.34"/>
   </edge>
   <edge function="internal" id=":1423242728_10">
      <lane id=":1423242728_10_0" index="0" length="2.41" shape="222.86,71.25 223.43,70.53 224.81,69.96" speed="13.89"/>
   </edge>
   <edge function="internal" id=":1423242728_3">
      <lane disallow="tram rail_urban rail rail_electric ship" id=":1423242728_3_0" index="0" length="5.74" shape="222.12,65.46 222.25,67.22 222.74,68.56 223.59,69.47 224.81,69.96" speed="8.34"/>
   </edge>
   <edge function="internal" id=":1423242728_4">
      <lane disallow="tram rail_urban rail rail_electric ship" id=":1423242728_4_0" index="0" length="11.18" shape="222.12,65.46 221.59,68.56 220.19,70.57 217.93,71.51 214.79,71.37" speed="8.34"/>
   </edge>
   <edge function="internal" id=":1423242728_5">
      <lane disallow="tram rail_urban rail rail_electric ship" id=":1423242728_5_0" index="0" length="4.82" shape="222.12,65.46 221.26,66.68 220.43,67.07 219.62,66.64 218.82,65.38" speed="2.78"/>
   </edge>
   <edge function="internal" id=":1423242728_6">
      <lane disallow="tram rail_urban rail rail_electric ship" id=":1423242728_6_0" index="0" length="5.21" shape="215.41,68.12 216.87,68.19 217.93,67.75 218.58,66.82 218.82,65.38" speed="8.34"/>
   </edge>
   <edge function="internal" id=":1423242728_7">
      <lane disallow="tram rail_urban rail rail_electric ship" id=":1423242728_7_0" index="0" length="9.57" shape="215.41,68.12 224.81,69.96" speed="13.89"/>
   </edge>
   <edge function="internal" id=":1423242728_8">
      <lane disallow="tram rail_urban rail rail_electric ship" id=":1423242728_8_0" index="0" length="2.41" shape="215.41,68.12 216.47,69.17 216.72,70.05" speed="13.89"/>
   </edge>
   <edge function="internal" id=":1423242728_11">
      <lane id=":1423242728_11_0" index="0" length="2.41" shape="216.72,70.05 216.16,70.79 214.79,71.37" speed="13.89"/>
   </edge>
   <edge function="internal" id=":1423242729_0">
      <lane disallow="tram rail_urban rail rail_electric ship" id=":1423242729_0_0" index="0" length="0.10" shape="256.53,79.73 256.58,79.74" speed="13.89"/>
   </edge>
   <edge function="internal" id=":1423242729_1">
      <lane disallow="tram rail_urban rail rail_electric ship" id=":1423242729_1_0" index="0" length="2.41" shape="256.53,79.73 255.51,78.65 255.30,77.75" speed="13.89"/>
   </edge>
   <edge function="internal" id=":1423242729_4">
      <lane id=":1423242729_4_0" index="0" length="2.41" shape="255.30,77.75 255.89,77.04 257.28,76.52" speed="13.89"/>
   </edge>
   <edge function="internal" id=":1423242729_2">
      <lane disallow="tram rail_urban rail rail_electric ship" id=":1423242729_2_0" index="0" length="0.10" shape="257.26,76.52 257.28,76.52" speed="13.89"/>
   </edge>
   <edge function="internal" id=":1423242729_3">
      <lane disallow="tram rail_urban rail rail_electric ship" id=":1423242729_3_0" index="0" length="2.41" shape="257.26,76.52 258.30,77.58 258.53,78.47" speed="13.89"/>
   </edge>
   <edge function="internal" id=":1423242729_5">
      <lane id=":1423242729_5_0" index="0" length="2.41" shape="258.53,78.47 257.96,79.19 256.58,79.74" speed="13.89"/>
   </edge>
   <edge function="internal" id=":1504207551_0">
      <lane disallow="tram rail_urban rail rail_electric ship" id=":1504207551_0_0" index="0" length="7.09" shape="255.84,445.23 254.06,438.37" speed="8.33"/>
   </edge>
   <edge function="internal" id=":1504207551_1">
      <lane disallow="tram rail_urban rail rail_electric ship" id=":1504207551_1_0" index="0" length="6.32" shape="257.36,438.41 257.49,440.08 257.93,441.58 258.69,442.90 259.76,444.04" speed="8.33"/>
   </edge>
   <edge function="internal" id=":1504207551_2">
      <lane disallow="tram rail_urban rail rail_electric ship" id=":1504207551_2_0" index="0" length="4.82" shape="257.36,438.41 256.51,439.64 255.68,440.04 254.86,439.62 254.06,438.37" speed="8.33"/>
   </edge>
   <edge function="internal" id=":1504207553_0">
      <lane disallow="tram rail_urban rail rail_electric ship" id=":1504207553_0_0" index="0" length="6.44" shape="260.37,444.56 265.72,448.14" speed="8.33"/>
   </edge>
   <edge function="internal" id=":1504207553_1">
      <lane disallow="tram rail_urban rail rail_electric ship" id=":1504207553_1_0" index="0" length="6.15" shape="259.59,448.62 265.72,448.14" speed="8.33"/>
   </edge>
   <edge function="internal" id=":1504207555_0">
      <lane disallow="tram rail_urban rail rail_electric ship" id=":1504207555_0_0" index="0" length="4.88" shape="271.72,452.59 276.20,454.53" speed="8.33"/>
   </edge>
   <edge function="internal" id=":1504207555_1">
      <lane disallow="tram rail_urban rail rail_electric ship" id=":1504207555_1_0" index="0" length="4.89" shape="271.72,452.59 272.94,457.33" speed="8.33"/>
   </edge>
   <edge function="internal" id=":1504207558_0">
      <lane disallow="tram rail_urban rail rail_electric ship" id=":1504207558_0_0" index="0" length="5.94" shape="259.92,465.53 258.77,465.11 257.72,464.29 256.76,463.08 255.89,461.46" speed="8.33"/>
   </edge>
   <edge function="internal" id=":1504207558_1">
      <lane disallow="tram rail_urban rail rail_electric ship" id=":1504207558_1_0" index="0" length="5.66" shape="255.86,467.13 255.89,461.46" speed="8.33"/>
   </edge>
   <edge function="internal" id=":1504207559_0">
      <lane disallow="tram rail_urban rail rail_electric ship" id=":1504207559_0_0" index="0" length="5.63" shape="266.24,465.68 262.18,469.58" speed="8.33"/>
   </edge>
   <edge function="internal" id=":1504207559_1">
      <lane disallow="tram rail_urban rail rail_electric ship" id=":1504207559_1_0" index="0" length="5.80" shape="266.24,465.68 260.44,465.62" speed="8.33"/>
   </edge>
   <edge function="internal" id=":1504207563_0">
      <lane disallow="tram rail_urban rail rail_electric ship" id=":1504207563_0_0" index="0" length="0.10" shape="35.38,537.94 35.38,537.97" speed="13.89"/>
   </edge>
   <edge function="internal" id=":1504207563_1">
      <lane disallow="tram rail_urban rail rail_electric ship" id=":1504207563_1_0" index="0" length="2.41" shape="35.38,537.94 34.43,539.09 33.57,539.42" speed="13.89"/>
   </edge>
   <edge function="internal" id=":1504207563_4">
      <lane id=":1504207563_4_0" index="0" length="2.41" shape="33.57,539.42 32.79,538.92 32.10,537.60" speed="13.89"/>
   </edge>
   <edge function="internal" id=":1504207563_2">
      <lane disallow="tram rail_urban rail rail_electric ship" id=":1504207563_2_0" index="0" length="0.17" shape="32.08,537.77 32.10,537.60" speed="13.89"/>
   </edge>
   <edge function="internal" id=":1504207563_3">
      <lane disallow="tram rail_urban rail rail_electric ship" id=":1504207563_3_0" index="0" length="2.41" shape="32.08,537.77 32.98,536.59 33.83,536.22" speed="13.89"/>
   </edge>
   <edge function="internal" id=":1504207563_5">
      <lane id=":1504207563_5_0" index="0" length="2.41" shape="33.83,536.22 34.63,536.68 35.38,537.97" speed="13.89"/>
   </edge>
   <edge function="internal" id=":1504207578_0">
      <lane allow="delivery bicycle pedestrian" id=":1504207578_0_0" index="0" length="5.01" shape="60.39,629.86 59.04,629.66 57.95,629.94 57.11,630.70 56.53,631.95" speed="5.56"/>
   </edge>
   <edge function="internal" id=":1504207578_1">
      <lane allow="delivery bicycle pedestrian" id=":1504207578_1_0" index="0" length="9.50" shape="60.39,629.86 51.29,627.14" speed="5.56"/>
   </edge>
   <edge function="internal" id=":1504207578_2">
      <lane allow="delivery bicycle pedestrian" id=":1504207578_2_0" index="0" length="4.82" shape="60.39,629.86 59.45,628.71 59.29,627.80 59.92,627.13 61.34,626.70" speed="5.56"/>
   </edge>
   <edge function="internal" id=":1504207578_3">
      <lane allow="delivery bicycle pedestrian" id=":1504207578_3_0" index="0" length="9.50" shape="52.24,623.98 61.34,626.70" speed="5.56"/>
   </edge>
   <edge function="internal" id=":1504207578_4">
      <lane allow="delivery bicycle pedestrian" id=":1504207578_4_0" index="0" length="10.33" shape="52.24,623.98 54.81,625.16 56.38,626.89 56.96,629.15 56.53,631.95" speed="5.56"/>
   </edge>
   <edge function="internal" id=":1504207578_5">
      <lane allow="delivery bicycle pedestrian" id=":1504207578_5_0" index="0" length="4.82" shape="52.24,623.98 53.19,625.12 53.35,626.03 52.71,626.70 51.29,627.14" speed="5.56"/>
   </edge>
   <edge function="internal" id=":1504207578_6">
      <lane allow="delivery bicycle pedestrian" id=":1504207578_6_0" index="0" length="5.00" shape="53.37,631.00 53.58,629.64 53.30,628.55 52.54,627.71 51.29,627.14" speed="5.56"/>
   </edge>
   <edge function="internal" id=":1504207578_7">
      <lane allow="delivery bicycle pedestrian" id=":1504207578_7_0" index="0" length="10.32" shape="53.37,631.00 54.56,628.43 56.29,626.86 58.55,626.28 61.34,626.70" speed="5.56"/>
   </edge>
   <edge function="internal" id=":1504207578_8">
      <lane allow="delivery bicycle pedestrian" id=":1504207578_8_0" index="0" length="4.82" shape="53.37,631.00 54.52,630.05 55.43,629.89 56.10,630.52 56.53,631.95" speed="5.56"/>
   </edge>
   <edge function="internal" id=":1504207579_0">
      <lane allow="delivery bicycle pedestrian" id=":1504207579_0_0" index="0" length="7.91" shape="70.23,629.35 72.20,630.26 73.40,631.58 73.84,633.31 73.52,635.46" speed="5.56"/>
   </edge>
   <edge function="internal" id=":1504207579_1">
      <lane allow="delivery bicycle pedestrian" id=":1504207579_1_0" index="0" length="2.80" shape="70.23,629.35 71.18,630.50 71.34,631.41 71.07,631.69" speed="5.56"/>
   </edge>
   <edge function="internal" id=":1504207579_4">
      <lane id=":1504207579_4_0" index="0" length="2.02" shape="71.07,631.69 70.70,632.08 69.28,632.52" speed="5.56"/>
   </edge>
   <edge function="internal" id=":1504207579_2">
      <lane allow="delivery bicycle pedestrian" id=":1504207579_2_0" index="0" length="2.58" shape="70.36,634.51 70.46,633.81 70.32,633.24 69.92,632.81 69.28,632.52" speed="5.56"/>
   </edge>
   <edge function="internal" id=":1504207579_3">
      <lane allow="delivery bicycle pedestrian" id=":1504207579_3_0" index="0" length="2.20" shape="70.36,634.51 71.50,633.56 72.20,633.44" speed="5.56"/>
   </edge>
   <edge function="internal" id=":1504207579_5">
      <lane id=":1504207579_5_0" index="0" length="2.62" shape="72.20,633.44 72.41,633.40 73.08,634.04 73.52,635.46" speed="5.56"/>
   </edge>
   <edge function="internal" id=":1504207584_0">
      <lane disallow="tram rail_urban rail rail_electric ship" id=":1504207584_0_0" index="0" length="0.10" shape="610.16,671.26 610.23,671.21" speed="13.89"/>
   </edge>
   <edge function="internal" id=":1504207584_1">
      <lane disallow="tram rail_urban rail rail_electric ship" id=":1504207584_1_0" index="0" length="2.41" shape="610.16,671.26 608.67,671.25 607.88,670.79" speed="13.89"/>
   </edge>
   <edge function="internal" id=":1504207584_4">
      <lane id=":1504207584_4_0" index="0" length="2.41" shape="607.88,670.79 607.76,669.87 608.34,668.50" speed="13.89"/>
   </edge>
   <edge function="internal" id=":1504207584_2">
      <lane disallow="tram rail_urban rail rail_electric ship" id=":1504207584_2_0" index="0" length="0.10" shape="608.27,668.55 608.34,668.50" speed="13.89"/>
   </edge>
   <edge function="internal" id=":1504207584_3">
      <lane disallow="tram rail_urban rail rail_electric ship" id=":1504207584_3_0" index="0" length="2.41" shape="608.27,668.55 609.75,668.48 610.58,668.90" speed="13.89"/>
   </edge>
   <edge function="internal" id=":1504207584_5">
      <lane id=":1504207584_5_0" index="0" length="2.41" shape="610.58,668.90 610.74,669.81 610.23,671.21" speed="13.89"/>
   </edge>
   <edge function="internal" id=":1516302011_0">
      <lane disallow="tram rail_urban rail rail_electric ship" id=":1516302011_0_0" index="0" length="5.83" shape="441.65,130.07 440.22,130.19 439.03,130.78 438.09,131.83 437.41,133.33" speed="13.89"/>
   </edge>
   <edge function="internal" id=":1516302011_1">
      <lane disallow="tram rail_urban rail rail_electric ship" id=":1516302011_1_0" index="0" length="10.60" shape="441.65,130.07 438.60,129.82 436.39,129.50 434.21,129.01 431.24,128.24" speed="13.89"/>
   </edge>
   <edge function="internal" id=":1516302011_2">
      <lane allow="delivery bicycle pedestrian" id=":1516302011_2_0" index="0" length="5.54" shape="441.65,130.07 439.06,129.43 437.16,127.93 436.96,127.53" speed="9.73"/>
   </edge>
   <edge function="internal" id=":1516302011_3">
      <lane disallow="tram rail_urban rail rail_electric ship" id=":1516302011_3_0" index="0" length="2.64" shape="441.65,130.07 440.47,129.16 440.12,128.31 440.23,128.11" speed="13.89"/>
   </edge>
   <edge function="internal" id=":1516302011_16">
      <lane id=":1516302011_16_0" index="0" length="5.50" shape="436.96,127.53 435.97,125.56 435.47,122.31" speed="9.73"/>
   </edge>
   <edge function="internal" id=":1516302011_17">
      <lane id=":1516302011_17_0" index="0" length="2.18" shape="440.23,128.11 440.58,127.51 441.87,126.77" speed="13.89"/>
   </edge>
   <edge function="internal" id=":1516302011_4">
      <lane disallow="tram rail_urban rail rail_electric ship" id=":1516302011_4_0" index="0" length="6.14" shape="438.76,122.17 439.03,124.11 439.63,125.53 440.58,126.41 441.87,126.77" speed="9.73"/>
   </edge>
   <edge function="internal" id=":1516302011_5">
      <lane disallow="tram rail_urban rail rail_electric ship" id=":1516302011_5_0" index="0" length="11.33" shape="438.76,122.17 438.85,125.36 438.74,127.84 438.30,130.29 437.41,133.33" speed="9.73"/>
   </edge>
   <edge function="internal" id=":1516302011_6">
      <lane disallow="tram rail_urban rail rail_electric ship" id=":1516302011_6_0" index="0" length="11.97" shape="438.76,122.17 438.42,125.59 437.05,127.74 434.66,128.62 431.24,128.24" speed="9.73"/>
   </edge>
   <edge function="internal" id=":1516302011_7">
      <lane allow="delivery bicycle pedestrian" id=":1516302011_7_0" index="0" length="4.82" shape="438.76,122.17 437.99,123.44 437.18,123.89 436.34,123.51 435.47,122.31" speed="5.56"/>
   </edge>
   <edge function="internal" id=":1516302011_8">
      <lane allow="delivery bicycle pedestrian" id=":1516302011_8_0" index="0" length="5.40" shape="432.07,125.04 433.61,125.22 434.69,124.82 435.31,123.85 435.47,122.31" speed="9.73"/>
   </edge>
   <edge function="internal" id=":1516302011_9">
      <lane disallow="tram rail_urban rail rail_electric ship" id=":1516302011_9_0" index="0" length="9.95" shape="432.07,125.04 441.87,126.77" speed="13.89"/>
   </edge>
   <edge function="internal" id=":1516302011_10">
      <lane disallow="tram rail_urban rail rail_electric ship" id=":1516302011_10_0" index="0" length="5.81" shape="432.07,125.04 435.18,126.28 436.98,127.97" speed="13.89"/>
   </edge>
   <edge function="internal" id=":1516302011_11">
      <lane disallow="tram rail_urban rail rail_electric ship" id=":1516302011_11_0" index="0" length="2.41" shape="432.07,125.04 433.06,126.15 433.25,127.06" speed="13.89"/>
   </edge>
   <edge function="internal" id=":1516302011_18">
      <lane id=":1516302011_18_0" index="0" length="5.57" shape="436.98,127.97 437.10,128.08 437.84,130.43 437.41,133.33" speed="13.89"/>
   </edge>
   <edge function="internal" id=":1516302011_19">
      <lane id=":1516302011_19_0" index="0" length="2.41" shape="433.25,127.06 432.65,127.75 431.24,128.24" speed="13.89"/>
   </edge>
   <edge function="internal" id=":1516302011_12">
      <lane disallow="tram rail_urban rail rail_electric ship" id=":1516302011_12_0" index="0" length="5.84" shape="434.27,132.32 434.45,130.93 434.00,129.78 432.93,128.88 431.24,128.24" speed="13.89"/>
   </edge>
   <edge function="internal" id=":1516302011_13">
      <lane allow="delivery bicycle pedestrian" id=":1516302011_13_0" index="0" length="10.18" shape="434.27,132.32 435.13,129.45 435.52,127.40 435.58,125.31 435.47,122.31" speed="9.73"/>
   </edge>
   <edge function="internal" id=":1516302011_14">
      <lane disallow="tram rail_urban rail rail_electric ship" id=":1516302011_14_0" index="0" length="10.25" shape="434.27,132.32 435.46,129.75 437.13,127.97 439.26,126.98 441.87,126.77" speed="13.89"/>
   </edge>
   <edge function="internal" id=":1516302011_15">
      <lane disallow="tram rail_urban rail rail_electric ship" id=":1516302011_15_0" index="0" length="4.82" shape="434.27,132.32 435.43,131.40 436.34,131.26 437.00,131.90 437.41,133.33" speed="13.89"/>
   </edge>
   <edge function="internal" id=":1516302023_0">
      <lane disallow="tram rail_urban rail rail_electric ship" id=":1516302023_0_0" index="0" length="0.16" shape="413.54,207.26 413.50,207.41" speed="13.89"/>
   </edge>
   <edge function="internal" id=":1516302023_1">
      <lane disallow="tram rail_urban rail rail_electric ship" id=":1516302023_1_0" index="0" length="2.41" shape="413.54,207.26 412.38,208.18 411.47,208.32" speed="13.89"/>
   </edge>
   <edge function="internal" id=":1516302023_4">
      <lane id=":1516302023_4_0" index="0" length="2.41" shape="411.47,208.32 410.81,207.68 410.40,206.25" speed="13.89"/>
   </edge>
   <edge function="internal" id=":1516302023_2">
      <lane disallow="tram rail_urban rail rail_electric ship" id=":1516302023_2_0" index="0" length="0.48" shape="410.28,206.71 410.40,206.25" speed="13.89"/>
   </edge>
   <edge function="internal" id=":1516302023_3">
      <lane disallow="tram rail_urban rail rail_electric ship" id=":1516302023_3_0" index="0" length="2.41" shape="410.28,206.71 411.35,205.68 412.24,205.45" speed="13.89"/>
   </edge>
   <edge function="internal" id=":1516302023_5">
      <lane id=":1516302023_5_0" index="0" length="2.41" shape="412.24,205.45 412.96,206.03 413.50,207.41" speed="13.89"/>
   </edge>
   <edge function="internal" id=":1516302036_0">