<?xml version="1.0" encoding="utf-8"?><!-- generated on 10/11/17 17:55:11 by SUMO polyconvert Version 0.25.0
<?xml version="1.0" encoding="UTF-8"?>

<configuration xmlns:xsi="http://www.w3.org/2001/XMLSchema-instance" xsi:noNamespaceSchemaLocation="http://sumo.dlr.de/xsd/polyconvertConfiguration.xsd">

    <input>
        <net-file value="J_Neulobeda_urban_800.net.xml"/>
        <osm-files value="J_Neulobeda_urban_800.osm"/>
        <type-file value="osmPolyconvert.typ.xml"/>
    </input>

    <output>
        <output-file value="J_Neulobeda_urban_800.poly.xml"/>
    </output>

    <projection>
        <proj.utm value="true"/>
    </projection>

    <processing>
        <poi-layer-offset value="5"/>
    </processing>

</configuration>
-->
<additional>
   <location convBoundary="0.00,-60.05,885.78,793.11" netOffset="-682899.84,-5639545.85" origBoundary="11.600302,50.878003,11.612579,50.885499" projParameter="+proj=utm +zone=32 +ellps=WGS84 +datum=WGS84 +units=m +no_defs"/>
   <poly color="207,245,201" fill="1" id="137349978" layer="-2.00" shape="862.46,94.15 783.97,93.97 673.24,89.72 609.18,65.63 577.43,25.28 193.58,-22.03 205.94,-17.11 215.23,-5.76 223.18,-1.31 238.33,3.00 251.69,3.34 277.83,16.05 281.67,27.20 340.81,57.41 347.19,49.44 349.70,50.96 449.63,120.41 471.14,134.29 486.18,142.09 500.82,145.46 521.38,147.68 543.41,165.06 602.68,210.14 609.70,217.72 658.13,318.21 810.32,266.04 814.00,248.55 830.08,175.91 859.80,175.16 862.46,94.15" type="tourism"/>
   <poly color="194,194,130" fill="1" id="139249321" layer="-3.00" shape="825.16,94.97 783.97,93.97 673.24,89.72 609.18,65.63 577.43,25.28 575.58,16.10 768.91,22.74 854.26,23.92 851.23,45.68 835.99,70.75 825.16,94.97" type="landuse"/>
   <poly color="194,194,130" fill="1" id="139250913" layer="-3.00" shape="873.90,202.97 871.53,107.96 871.45,149.29 873.90,202.97" type="landuse"/>
   <poly color="140,196,107" fill="1" id="139250914" layer="-3.00" shape="871.86,104.18 861.79,47.54 871.86,104.18" type="forest"/>
   <poly color="140,196,107" fill="1" id="139250917" layer="-3.00" shape="746.04,123.29 750.86,137.56 767.71,140.27 791.26,139.03 809.98,136.64 814.35,124.59 759.79,121.19 746.04,123.29" type="forest"/>
   <poly color="140,196,107" fill="1" id="139250918" layer="-3.00" shape="639.75,134.70 679.00,141.20 721.42,151.46 745.32,164.14 748.92,160.12 725.93,146.33 679.30,135.31 642.07,129.57 639.75,134.70" type="forest"/>
   <poly color="140,196,107" fill="1" id="139250919" layer="-3.00" shape="637.88,197.22 661.05,225.38 675.05,247.68 689.01,270.90 676.38,299.50 647.60,259.80 611.56,215.88 637.88,197.22" type="forest"/>
   <poly color="red" fill="0" id="139270113" layer="-1.00" shape="12.69,747.41 25.52,749.00" type="building"/>
   <poly color="red" fill="1" id="139270116" layer="-1.00" shape="2.62,685.08" type="building"/>
   <poly color="184,184,179" fill="1" id="161634581" layer="-1.00" shape="479.57,199.04 485.32,203.16 563.58,259.28 597.26,213.32 511.34,156.54 479.57,199.04" type="parking"/>
   <poly color="140,196,107" fill="1" id="161634809" layer="-3.00" shape="613.40,264.72 596.48,252.06 590.29,233.76 602.20,218.06 610.07,224.01 643.98,292.25 613.40,264.72" type="forest"/>
   <poly color="140,196,107" fill="1" id="165508523" layer="-3.00" shape="797.30,265.84 721.48,241.23 690.16,229.52 660.32,214.66 663.41,210.09 698.08,225.50 721.72,234.26 796.26,258.55 797.30,265.84" type="forest"/>
   <poly color="184,184,179" fill="1" id="166805917" layer="-1.00" shape="313.10,110.76 336.86,80.67 369.33,104.68 387.79,80.44 347.19,49.44 303.11,104.55 306.18,106.46 313.10,110.76" type="parking"/>
   <poly color="184,184,179" fill="1" id="166912042" layer="-1.00" shape="646.77,108.19 606.04,85.17 610.56,76.08 652.08,97.68 646.77,108.19" type="parking"/>
   <poly color="140,196,107" fill="1" id="166912043" layer="-3.00" shape="322.46,-29.39 309.63,-36.14 286.17,-40.62 255.03,-36.07 205.88,-24.23 219.30,-19.24 258.18,-26.68 275.34,-31.78 288.84,-30.73 316.52,-23.84 345.89,-7.65 491.21,109.88 603.12,173.65 635.51,194.60 652.60,200.16 634.94,181.95 606.43,165.49 566.38,143.29 541.98,129.30 493.22,97.81 363.57,-4.73 322.46,-29.39" type="forest"/>
   <poly color="140,196,107" fill="1" id="166912044" layer="-3.00" shape="339.52,53.20 353.63,39.01 353.46,32.97 349.87,27.94 343.86,26.60 338.12,29.03 332.72,42.79 332.09,49.92 339.52,53.20" type="forest"/>
   <poly color="207,245,201" fill="1" id="166912045" layer="-2.00" shape="253.05,-1.57 328.32,37.27 336.34,23.78 334.12,17.45 318.98,9.14 301.12,3.30 283.89,0.45 253.05,-1.57" type="leisure"/>
   <poly color="194,194,130" fill="1" id="166912046" layer="-3.00" shape="203.30,12.82 257.30,26.88 258.48,20.20 239.28,14.25 203.01,3.55 174.74,-19.68 168.31,-7.46 203.30,12.82" type="landuse"/>
   <poly color="140,196,107" fill="1" id="166912048" layer="-3.00" shape="174.74,-19.68 203.01,3.55 239.28,14.25 258.48,20.20 281.67,27.20 277.83,16.05 251.69,3.34 238.33,3.00 223.18,-1.31 215.23,-5.76 205.94,-17.11 193.58,-22.03 178.45,-25.78 174.74,-19.68" type="forest"/>
   <poly color="red" fill="1" id="166912049" layer="-1.00" shape="572.37,72.04 576.20,74.61 581.06,67.44 579.55,66.42 577.23,64.86 572.37,72.04" type="building"/>
   <poly color="207,245,201" fill="1" id="166912971" layer="-2.00" shape="391.09,100.64 413.62,117.91 422.49,106.40 399.96,89.13 391.09,100.64" type="leisure"/>
   <poly color="79,230,125" fill="1" id="166912971#1" layer="-2.00" shape="391.09,100.64 413.62,117.91 422.49,106.40 399.96,89.13 391.09,100.64" type="sport"/>
   <poly color="140,196,107" fill="0" id="166913501" layer="-3.00" shape="814.00,248.55 810.32,266.04" type="forest"/>
   <poly color="194,194,130" fill="1" id="166913503" layer="-3.00" shape="810.32,266.04" type="landuse"/>
   <poly color="140,196,107" fill="0" id="166913507" layer="-3.00" shape="869.55,282.18 852.11,298.52 878.61,318.84" type="forest"/>
   <poly color="181,209,209" fill="0" id="180401069" layer="-4.00" shape="94.69,-48.40 53.71,-21.42" type="water"/>
   <poly color="red" fill="0" id="183255942" layer="-1.00" shape="834.63,754.29 850.89,733.65" type="building"/>
   <poly color="184,184,179" fill="1" id="196298582" layer="-1.00" shape="349.27,759.15 324.31,739.66 217.12,655.97 221.07,650.83 353.23,754.01 349.27,759.15" type="parking"/>
   <poly color="red" fill="1" id="198242961" layer="-1.00" shape="474.54,554.49 523.39,592.29 517.80,599.49 583.83,650.59 549.89,694.23 533.96,681.90 526.16,685.58 509.61,672.38 511.02,664.30 434.55,604.96 448.49,587.04 450.72,584.18 447.50,581.69 451.82,576.14 455.49,578.97 474.54,554.49" type="building"/>
   <poly color="red" fill="1" id="198242962" layer="-1.00" shape="588.83,659.57 558.93,698.14 593.59,724.87 624.10,685.51 619.28,681.80 621.95,678.36 598.36,660.16 595.08,664.40 588.83,659.57" type="building"/>
   <poly color="red" fill="1" id="198508564" layer="-1.00" shape="199.13,570.51 186.47,586.95 183.77,590.47 217.76,616.63 232.67,597.27 240.19,587.50 206.19,561.33 199.13,570.51" type="building"/>
   <poly color="207,245,201" fill="1" id="198508564#1" layer="-2.00" shape="199.13,570.51 186.47,586.95 183.77,590.47 217.76,616.63 232.67,597.27 240.19,587.50 206.19,561.33 199.13,570.51" type="leisure"/>
   <poly color="79,230,125" fill="1" id="198508564#2" layer="-2.00" shape="199.13,570.51 186.47,586.95 183.77,590.47 217.76,616.63 232.67,597.27 240.19,587.50 206.19,561.33 199.13,570.51" type="sport"/>
   <poly color="red" fill="1" id="198510010" layer="-1.00" shape="396.62,417.13 401.45,410.87 404.16,412.93 413.14,401.27 423.33,409.08 419.07,414.61 423.33,417.86 427.81,412.04 434.37,417.06 424.66,429.67 425.39,430.21 423.06,433.25 425.37,435.02 422.75,438.43 420.25,436.50 417.72,439.77 406.67,431.30 397.76,424.47 400.88,420.41 396.62,417.13" type="building"/>
   <poly color="red" fill="1" id="198510013" layer="-1.00" shape="240.19,587.50 246.56,592.41 250.00,595.06 242.48,604.83 239.10,602.22 232.67,597.27 240.19,587.50" type="building"/>
   <poly color="red" fill="1" id="198510014" layer="-1.00" shape="721.20,788.90 728.89,779.17 721.20,788.90" type="building"/>
   <poly color="red" fill="1" id="200857129" layer="-1.00" shape="340.16,660.93 347.44,666.35 358.34,674.66 367.72,681.68 381.51,663.48 353.97,642.71 340.16,660.93" type="building"/>
   <poly color="red" fill="1" id="200857130" layer="-1.00" shape="320.95,668.94 367.25,704.23 374.14,695.24 354.21,680.05 358.34,674.66 347.44,666.35 343.18,671.91 327.71,660.12 320.95,668.94" type="building"/>
   <poly color="red" fill="1" id="200857131" layer="-1.00" shape="351.56,631.60 365.87,642.75 361.64,648.16 373.12,657.10 377.11,652.01 396.70,667.29 403.15,659.04 404.32,657.56 358.93,622.18 351.56,631.60" type="building"/>
   <poly color="237,199,199" fill="1" id="200857416" layer="-1.00" shape="259.54,675.20 307.87,616.12 333.36,584.92 363.97,608.64 369.13,612.64 373.76,616.23 384.21,624.31 415.62,648.14 448.44,672.86 409.35,721.35 402.31,730.09 389.18,746.37 381.14,756.35 374.08,765.07 343.11,740.77 330.02,730.50 259.54,675.20" type="amenity"/>
   <poly color="red" fill="1" id="204702579" layer="-1.00" shape="408.75,580.28 416.66,570.08 433.78,548.02 451.12,525.65 462.21,511.36 450.25,502.12 396.78,571.04 408.75,580.28" type="building"/>
   <poly color="red" fill="1" id="204703758" layer="-1.00" shape="392.75,474.41 400.81,463.80 416.65,475.77 435.74,490.19 447.19,498.83 439.13,509.45 392.75,474.41" type="building"/>
   <poly color="207,245,201" fill="1" id="210298787" layer="-2.00" shape="304.46,122.10 317.36,131.60 326.87,118.56 335.68,115.28 346.17,117.72 353.98,115.93 357.71,111.73 359.12,103.87 359.27,99.73 336.83,82.54 304.46,122.10" type="leisure"/>
   <poly color="207,245,201" fill="1" id="215314899" layer="-2.00" shape="53.37,113.11 29.74,144.55 53.37,113.11" type="leisure"/>
   <poly color="237,199,199" fill="1" id="221552573" layer="-1.00" shape="203.46,422.77 215.73,428.87 221.82,416.86 209.95,410.39 203.46,422.77" type="amenity"/>
   <poly color="237,199,199" fill="1" id="221552581" layer="-1.00" shape="695.39,790.72 705.01,789.36 699.60,785.31 695.39,790.72" type="amenity"/>
   <poly color="237,199,199" fill="1" id="221653869" layer="-1.00" shape="432.33,700.59 437.63,704.80 441.73,699.64 436.42,695.44 432.33,700.59" type="amenity"/>
   <poly color="red" fill="0" id="226642007" layer="-1.00" shape="19.92,196.61 22.85,196.86 24.26,194.62 23.46,191.81 33.87,177.74 27.72,173.47 32.27,167.44 20.20,158.28 21.35,155.90 19.93,153.04" type="building"/>
   <poly color="207,245,201" fill="0" id="226642007#1" layer="-2.00" shape="19.92,196.61 22.85,196.86 24.26,194.62 23.46,191.81 33.87,177.74 27.72,173.47 32.27,167.44 20.20,158.28 21.35,155.90 19.93,153.04" type="tourism"/>
   <poly color="207,245,201" fill="0" id="227546367" layer="-2.00" shape="120.82,766.17 120.24,763.66 109.41,763.61 77.78,748.25 80.45,742.29 110.89,754.32 116.12,750.41 107.69,731.18 79.85,675.38 47.22,609.73 26.15,613.92 17.30,615.04 15.29,680.20 30.71,712.04 40.46,732.70 45.05,749.10 45.66,761.89" type="tourism"/>
   <poly color="194,194,130" fill="1" id="227550048" layer="-3.00" shape="47.22,609.73 26.15,613.92 17.30,615.04 38.72,587.05 47.22,609.73" type="landuse"/>
   <poly color="red" fill="1" id="233204600" layer="-1.00" shape="37.83,273.80 75.51,224.68 85.53,232.34 75.16,245.86 73.42,248.15 59.41,266.39 57.62,268.75 47.86,281.47 37.83,273.80" type="building"/>
   <poly color="red" fill="1" id="233204601" layer="-1.00" shape="67.33,295.20 84.39,272.50 103.60,246.88 94.07,239.77 84.41,252.67 82.69,254.97 68.88,273.34 67.11,275.72 57.82,288.09 67.33,295.20" type="building"/>
   <poly color="red" fill="1" id="233204606" layer="-1.00" shape="47.13,318.02 96.35,355.78 88.85,365.52 76.07,355.73 73.96,354.08 55.65,339.43 53.98,338.12 39.94,327.35 47.13,318.02" type="building"/>
   <poly color="red" fill="1" id="233204618" layer="-1.00" shape="82.53,373.87 74.60,383.92 48.22,363.20 25.38,345.23 33.39,335.09 47.59,346.26 49.26,347.56 67.53,362.08 69.63,363.74 82.53,373.87" type="building"/>
   <poly color="red" fill="1" id="233204711" layer="-1.00" shape="323.58,406.23 374.73,444.58 383.37,446.02 378.88,487.67 370.62,486.25 373.91,467.91 313.64,420.19 323.58,406.23" type="building"/>
   <poly color="red" fill="1" id="233204750" layer="-1.00" shape="226.01,298.55 233.64,288.87 235.69,290.46 245.68,277.80 243.72,276.25 250.76,267.32 266.24,279.46 269.48,275.34 281.75,284.95 262.00,309.99 263.77,311.38 255.57,321.78 245.32,313.73 247.49,310.99 238.92,304.27 236.77,306.99 226.01,298.55" type="building"/>
   <poly color="red" fill="1" id="233729762" layer="-1.00" shape="164.30,493.65 155.08,486.74 148.01,481.35 136.57,472.49 121.51,491.81 133.52,501.05 139.49,505.72 149.51,513.17 164.30,493.65" type="building"/>
   <poly color="red" fill="1" id="233729764" layer="-1.00" shape="139.92,453.19 134.42,460.03 153.12,475.00 148.01,481.35 155.08,486.74 161.98,478.18 180.26,492.81 183.86,488.34 139.92,453.19" type="building"/>
   <poly color="red" fill="1" id="233729766" layer="-1.00" shape="102.52,498.91 107.59,492.45 127.86,508.28 133.52,501.05 139.49,505.72 134.27,512.37 154.34,528.05 148.82,535.08 102.52,498.91" type="building"/>
   <poly color="207,245,201" fill="0" id="234317565" layer="-2.00" shape="235.10,700.51 274.09,729.81" type="leisure"/>
   <poly color="79,230,125" fill="0" id="234317565#1" layer="-2.00" shape="235.10,700.51 274.09,729.81" type="sport"/>
   <poly color="140,196,107" fill="1" id="238681705" layer="-4.00" shape="435.43,754.72 432.55,754.68 430.15,753.50 428.20,751.30 426.59,748.49 426.17,745.00 426.78,741.11 427.82,740.35 428.33,740.07 431.40,740.42 433.19,741.77 435.57,743.81 437.12,746.60 438.16,749.81 437.84,752.06 436.73,754.21 435.43,754.72" type="natural"/>
   <poly color="194,194,130" fill="1" id="238683424" layer="-3.00" shape="594.42,742.75 592.66,745.62 591.60,750.23 592.47,755.14 601.08,767.15 612.23,788.02 623.61,774.78 616.83,759.98 594.42,742.75" type="landuse"/>
   <poly color="194,194,130" fill="0" id="240477569" layer="-3.00" shape="592.64,788.03 586.62,778.07 581.66,769.92 576.94,763.61 578.59,764.68 583.81,771.07 592.34,784.73" type="landuse"/>
   <poly color="207,245,201" fill="1" id="240477575" layer="-2.00" shape="44.77,538.69 68.25,574.37 83.68,597.51 86.00,598.19 104.15,631.82 113.71,650.23 124.44,668.72 142.43,713.14 144.69,718.77 149.25,728.45 156.54,743.39 161.83,772.26 343.66,759.05 216.00,655.82 208.44,655.74 202.66,653.65 197.14,649.69 192.15,644.03 190.09,638.30 204.23,619.98 163.37,587.74 153.73,587.56 148.47,597.09 127.85,579.15 131.15,574.44 56.80,468.65 55.43,466.71 49.45,509.99 44.77,538.69" type="tourism"/>
   <poly color="140,196,107" fill="0" id="240477577" layer="-3.00" shape="23.79,512.14 44.77,538.69 49.45,509.99 55.43,466.71" type="forest"/>
   <poly color="237,199,199" fill="1" id="247101924" layer="-1.00" shape="541.18,693.61 539.50,695.71 544.39,699.59 546.07,697.49 541.18,693.61" type="amenity"/>
   <poly color="red" fill="1" id="247101924#1" layer="-1.00" shape="541.18,693.61 539.50,695.71 544.39,699.59 546.07,697.49 541.18,693.61" type="building"/>
   <poly color="209,209,204" fill="0" id="24711087" layer="-3.00" shape="577.43,25.28 609.18,65.63 673.24,89.72 783.97,93.97 862.46,94.15 861.82,67.57 872.60,49.18" type="industrial"/>
   <poly color="207,245,201" fill="1" id="255079885" layer="-2.00" shape="268.43,584.16 293.07,602.89 311.39,578.93 286.74,560.19 268.43,584.16" type="leisure"/>
   <poly color="79,230,125" fill="1" id="255079885#1" layer="-2.00" shape="268.43,584.16 293.07,602.89 311.39,578.93 286.74,560.19 268.43,584.16" type="sport"/>
   <poly color="red" fill="1" id="25607216" layer="-1.00" shape="662.72,423.32 655.68,432.39 661.34,436.75 672.86,445.64 684.37,454.53 695.87,463.43 707.39,472.32 718.90,481.21 730.41,490.10 736.25,494.60 743.28,485.54 662.72,423.32" type="building"/>
   <poly color="red" fill="1" id="25607319" layer="-1.00" shape="689.41,343.49 682.43,352.54 694.93,362.14 718.41,380.18 726.60,386.47 728.09,384.53 733.24,388.49 731.74,390.43 746.82,402.00 769.48,419.41 790.74,435.74 805.94,433.00 738.72,381.37 738.08,382.19 733.13,378.38 733.76,377.56 689.41,343.49" type="building"/>
   <poly color="red" fill="1" id="25607461" layer="-1.00" shape="604.23,736.99 608.12,740.09 614.06,744.37 616.50,741.28 662.28,683.46 652.24,674.98 604.23,736.99" type="building"/>
   <poly color="red" fill="1" id="25607585" layer="-1.00" shape="635.97,733.12 624.48,747.51 676.84,789.12 682.62,782.33 688.34,774.73 635.97,733.12" type="building"/>
   <poly color="red" fill="0" id="25607591" layer="-1.00" shape="870.82,499.22 849.60,482.45 839.05,474.12 847.15,463.92" type="building"/>
   <poly color="red" fill="1" id="26115352" layer="-1.00" shape="166.25,7.61 175.83,14.71 191.42,26.28 213.57,31.78 239.40,38.19 266.20,44.85 277.37,47.63 283.48,62.78 289.07,76.63 300.72,72.91 287.12,38.70 197.36,16.92 173.61,-2.23 166.25,7.61" type="building"/>
   <poly color="red" fill="1" id="26115373" layer="-1.00" shape="323.96,130.73 338.82,142.54 352.20,152.98 367.33,156.04 400.45,163.50 427.17,169.67 437.89,172.48 444.40,189.90 448.36,200.49 460.55,196.19 447.50,160.34 357.43,138.20 332.05,118.85 323.96,130.73" type="building"/>
   <poly color="red" fill="1" id="26115375" layer="-1.00" shape="369.33,399.29 358.60,391.10 393.10,346.15 396.34,348.63 465.69,258.28 476.21,266.31 465.50,280.26 452.18,297.63 431.48,324.59 414.79,346.33 406.28,357.42 403.24,355.11 394.54,366.44 379.59,385.92 369.33,399.29" type="building"/>
   <poly color="red" fill="1" id="26115397" layer="-1.00" shape="484.74,255.18 497.87,264.71 514.60,277.87 533.52,281.60 560.85,287.23 587.54,292.62 597.77,294.72 605.00,313.30 609.57,325.00 623.18,319.78 611.21,285.96 519.97,263.70 493.29,243.63 484.74,255.18" type="building"/>
   <poly color="red" fill="1" id="26115424" layer="-1.00" shape="153.24,381.16 162.68,368.85 176.86,350.61 193.09,330.02 207.06,312.58 188.44,297.75 148.06,265.98 137.64,279.16 151.99,290.45 168.19,303.12 177.92,310.70 182.16,313.93 138.94,370.25 153.24,381.16" type="building"/>
   <poly color="red" fill="1" id="26274929" layer="-1.00" shape="356.77,519.95 347.00,512.56 324.81,495.76 310.17,484.68 307.02,488.46 300.03,482.67 285.72,470.81 286.78,458.13 288.92,432.57 291.18,405.65 292.81,386.25 277.45,373.59 265.51,363.73 257.39,375.98 279.28,392.27 273.72,477.47 300.60,499.20 303.29,496.51 346.65,531.30 356.77,519.95" type="building"/>
   <poly color="237,199,199" fill="1" id="26380481" layer="-1.00" shape="216.71,499.89 216.77,496.30 110.37,413.02 109.37,414.79 105.20,418.30 100.25,419.05 97.52,418.90 92.39,417.11 88.99,414.23 66.92,452.01 121.51,491.81 133.52,501.05 139.49,505.72 149.51,513.17 166.79,526.39 177.13,534.41 184.76,540.53 216.71,499.89" type="amenity"/>
   <poly color="209,209,204" fill="0" id="27003022" layer="-3.00" shape="26.41,714.63 40.00,750.77 40.61,759.18" type="industrial"/>
   <poly color="red" fill="1" id="27173043" layer="-1.00" shape="295.80,615.66 257.08,585.86 250.00,595.06 242.48,604.83 235.17,614.33 273.89,644.13 295.80,615.66" type="building"/>
   <poly color="207,245,201" fill="1" id="27173043#1" layer="-2.00" shape="295.80,615.66 257.08,585.86 250.00,595.06 242.48,604.83 235.17,614.33 273.89,644.13 295.80,615.66" type="leisure"/>
   <poly color="184,184,179" fill="0" id="281760317" layer="-1.00" shape="563.57,776.97 558.28,782.43 553.25,778.20" type="parking"/>
   <poly color="194,194,130" fill="1" id="281760318" layer="-3.00" shape="563.57,776.97 558.28,782.43 553.25,778.20 560.28,769.55 566.82,765.22 571.57,769.91 563.57,776.97" type="landuse"/>
   <poly color="red" fill="1" id="28717135" layer="-1.00" shape="573.65,447.22 576.85,449.71 581.13,444.24 577.65,441.54 647.42,352.40 657.03,359.88 645.42,374.71 627.82,397.19 610.88,418.85 594.36,439.95 586.80,449.61 584.19,447.57 580.21,452.65 583.01,454.84 571.44,469.62 556.16,489.15 539.57,510.34 530.76,521.60 521.24,514.18 573.65,447.22" type="building"/>
   <poly color="red" fill="1" id="290660499" layer="-1.00" shape="166.89,229.28 170.08,225.20 166.74,222.61 163.56,226.69 166.89,229.28" type="building"/>
   <poly color="red" fill="1" id="290660500" layer="-1.00" shape="222.75,155.57 224.48,153.34 226.23,151.09 223.97,149.34 222.12,151.71 220.48,153.81 222.75,155.57" type="building"/>
   <poly color="red" fill="1" id="290660501" layer="-1.00" shape="179.11,121.79 180.04,120.60 182.65,117.26 180.44,115.55 177.85,118.85 176.90,120.08 179.11,121.79" type="building"/>
   <poly color="237,199,199" fill="1" id="293036072" layer="-1.00" shape="467.23,415.76 474.38,406.44 450.30,388.08 443.15,397.40 467.23,415.76" type="amenity"/>
   <poly color="red" fill="1" id="293036072#1" layer="-1.00" shape="467.23,415.76 474.38,406.44 450.30,388.08 443.15,397.40 467.23,415.76" type="building"/>
   <poly color="184,184,179" fill="1" id="293036114" layer="-1.00" shape="754.39,772.31 773.05,747.00 799.02,767.48 779.18,792.42 754.39,772.31" type="parking"/>
   <poly color="184,184,179" fill="1" id="293036115" layer="-1.00" shape="805.69,709.97 792.52,699.59 804.22,684.82 817.39,695.19 805.69,709.97" type="parking"/>
   <poly color="184,184,179" fill="1" id="293036117" layer="-1.00" shape="780.96,624.50 791.39,610.46 775.22,598.50 764.79,612.54 780.96,624.50" type="parking"/>
   <poly color="184,184,179" fill="1" id="293036118" layer="-1.00" shape="842.88,672.99 853.45,659.45 839.67,648.74 829.10,662.28 842.88,672.99" type="parking"/>
   <poly color="184,184,179" fill="1" id="293036119" layer="-1.00" shape="850.61,554.28 827.32,536.28 835.19,526.90 845.61,526.43 862.15,539.19 850.61,554.28" type="parking"/>
   <poly color="181,209,209" fill="0" id="29720644" layer="-4.00" shape="23.79,512.14 44.77,538.69 68.25,574.37 83.68,597.51 104.15,631.82 113.71,650.23 124.44,668.72 142.43,713.14 144.69,718.77 149.25,728.45 156.54,743.39 161.83,772.26 120.82,766.17 120.24,763.66 109.41,763.61 77.78,748.25 80.45,742.29 110.89,754.32 116.12,750.41 107.69,731.18 79.85,675.38 38.72,587.05" type="water"/>
   <poly color="red" fill="1" id="316311831" layer="-1.00" shape="208.86,277.30 198.13,269.11 232.63,224.15 235.88,226.63 305.22,136.28 315.74,144.31 305.03,158.26 291.71,175.62 271.01,202.59 254.32,224.33 245.81,235.43 242.77,233.11 234.08,244.44 219.12,263.93 208.86,277.30" type="building"/>
   <poly color="red" fill="1" id="316311832" layer="-1.00" shape="51.72,151.24 40.99,143.05 75.49,98.10 78.73,100.58 148.08,10.22 158.60,18.25 147.89,32.21 134.57,49.56 113.87,76.54 97.19,98.27 88.67,109.36 85.63,107.05 76.94,118.39 61.99,137.87 51.72,151.24" type="building"/>
   <poly color="red" fill="1" id="316311833" layer="-1.00" shape="730.80,571.51 734.00,573.99 738.28,568.52 734.81,565.82 804.58,476.69 814.18,484.17 802.58,499.00 784.98,521.47 768.03,543.12 751.52,564.22 743.96,573.89 741.34,571.85 737.36,576.94 740.17,579.12 728.60,593.90 713.31,613.43 696.73,634.62 687.91,645.87 678.40,638.46 730.80,571.51" type="building"/>
   <poly color="red" fill="1" id="316311834" layer="-1.00" shape="821.61,546.70 814.57,555.77 820.22,560.13 831.74,569.02 843.25,577.91 854.75,586.81 866.27,595.70 821.61,546.70" type="building"/>
   <poly color="red" fill="1" id="316311835" layer="-1.00" shape="601.79,502.11 594.75,511.17 600.42,515.53 611.93,524.43 623.44,533.32 634.95,542.21 646.46,551.10 657.98,559.99 669.48,568.88 675.32,573.40 682.36,564.33 601.79,502.11" type="building"/>
   <poly color="red" fill="1" id="316311836" layer="-1.00" shape="729.57,665.39 722.53,674.45 728.20,678.81 739.70,687.71 751.21,696.60 762.73,705.49 774.24,714.38 785.75,723.27 797.26,732.16 803.09,736.67 810.13,727.61 729.57,665.39" type="building"/>
   <poly color="red" fill="1" id="316311837" layer="-1.00" shape="790.82,585.67 783.79,594.73 789.44,599.11 800.95,608.00 812.47,616.89 823.98,625.78 835.48,634.68 847.00,643.57 858.51,652.46 864.35,656.96 790.82,585.67" type="building"/>
   <poly color="red" fill="1" id="316311838" layer="-1.00" shape="570.73,541.25 563.69,550.31 569.35,554.68 580.86,563.57 592.37,572.47 603.88,581.36 615.39,590.25 626.90,599.13 638.42,608.02 644.25,612.53 651.29,603.47 570.73,541.25" type="building"/>
   <poly color="red" fill="1" id="316311839" layer="-1.00" shape="631.94,462.29 624.91,471.35 630.56,475.72 642.07,484.61 653.59,493.50 665.10,502.40 676.60,511.29 688.12,520.18 699.63,529.07 705.46,533.58 712.50,524.52 631.94,462.29" type="building"/>
   <poly color="red" fill="1" id="316311840" layer="-1.00" shape="760.67,625.48 753.64,634.55 759.30,638.92 770.80,647.81 782.32,656.69 793.83,665.60 805.34,674.49 816.85,683.38 828.36,692.27 834.19,696.77 841.23,687.71 760.67,625.48" type="building"/>
   <poly color="237,199,199" fill="1" id="319991522" layer="-1.00" shape="528.99,729.53 525.70,726.74 524.34,728.33 527.63,731.12 528.99,729.53" type="amenity"/>
   <poly color="237,199,199" fill="1" id="319991529" layer="-1.00" shape="545.70,728.21 539.80,723.54 538.20,725.54 544.10,730.21 545.70,728.21" type="amenity"/>
   <poly color="207,245,201" fill="1" id="330641840" layer="-2.00" shape="330.99,616.80 333.77,614.88 337.03,613.96 340.41,614.16 343.53,615.44 346.08,617.67 347.76,620.59 348.39,623.90 347.91,627.24 346.37,630.24 343.93,632.57 340.86,633.99 339.21,634.17 337.52,634.34 334.23,633.59 331.37,631.83 329.25,629.23 328.07,626.09 327.98,622.74 328.99,619.51 330.99,616.80" type="leisure"/>
   <poly color="207,245,201" fill="1" id="330641842" layer="-2.00" shape="287.46,657.66 290.02,656.57 292.79,656.36 295.49,657.06 297.83,658.57 299.55,660.75 300.47,663.38 300.51,666.15 299.65,668.79 297.99,671.01 295.70,672.59 293.02,673.35 290.13,673.20 287.46,672.08 285.31,670.14 283.94,667.61 283.48,664.76 284.01,661.93 285.38,659.50 287.46,657.66" type="tourism"/>
   <poly color="194,194,130" fill="1" id="330641847" layer="-3.00" shape="333.36,584.92 363.97,608.64 329.50,651.00 326.21,648.00 321.82,653.25 325.41,656.00 314.70,669.63 363.22,706.90 359.20,712.24 363.52,715.34 343.11,740.77 330.02,730.50 259.54,675.20 307.87,616.12 333.36,584.92" type="landuse"/>
   <poly color="194,194,130" fill="1" id="330641855" layer="-3.00" shape="358.93,622.18 364.11,615.65 368.11,614.78 373.76,616.23 384.21,624.31 415.62,648.14 405.43,660.94 403.15,659.04 404.32,657.56 358.93,622.18" type="landuse"/>
   <poly color="194,194,130" fill="1" id="330641856" layer="-3.00" shape="339.00,652.08 341.39,652.59 351.24,641.07 348.79,640.94 346.08,641.63 343.92,642.50 342.04,643.81 340.59,645.82 339.62,648.01 339.17,650.02 339.00,652.08" type="landuse"/>
   <poly color="194,194,130" fill="1" id="330641857" layer="-3.00" shape="333.60,651.47 337.04,647.35 336.82,649.74 336.79,652.00 336.91,653.93 333.60,651.47" type="landuse"/>
   <poly color="194,194,130" fill="1" id="330641858" layer="-3.00" shape="214.45,561.24 223.47,568.03 250.01,588.00 257.78,578.09 274.72,556.47 283.50,545.27 252.75,521.71 247.53,517.56 222.46,550.67 219.99,553.91 214.45,561.24" type="landuse"/>
   <poly color="194,194,130" fill="1" id="330641859" layer="-3.00" shape="232.90,519.59 238.51,512.88 222.29,500.54 218.69,501.20 193.27,533.87 195.55,535.61 217.72,507.62 232.10,518.95 232.90,519.59" type="landuse"/>
   <poly color="194,194,130" fill="1" id="330641861" layer="-3.00" shape="176.61,552.90 179.91,555.38 199.13,570.51 186.47,586.95 183.77,590.47 217.76,616.63 212.19,623.71 209.89,621.62 157.96,581.00 157.39,577.36 163.72,569.30 176.61,552.90" type="landuse"/>
   <poly color="red" fill="1" id="330641862" layer="-1.00" shape="187.36,500.00 197.70,508.03 177.13,534.41 166.79,526.39 187.36,500.00" type="building"/>
   <poly color="red" fill="1" id="330641869" layer="-1.00" shape="76.07,355.73 69.63,363.74 67.53,362.08 73.96,354.08 76.07,355.73" type="building"/>
   <poly color="red" fill="1" id="330641870" layer="-1.00" shape="57.62,268.75 67.11,275.72 68.88,273.34 59.41,266.39 57.62,268.75" type="building"/>
   <poly color="red" fill="1" id="330641871" layer="-1.00" shape="75.16,245.86 84.41,252.67 82.69,254.97 73.42,248.15 75.16,245.86" type="building"/>
   <poly color="red" fill="1" id="330641872" layer="-1.00" shape="55.65,339.43 49.26,347.56 47.59,346.26 53.98,338.12 55.65,339.43" type="building"/>
   <poly color="237,199,199" fill="1" id="330641873" layer="-1.00" shape="136.98,354.39 113.99,384.01 94.28,387.39 78.10,385.26 64.30,380.17 24.41,350.52 13.85,339.31 71.84,305.71 136.98,354.39" type="amenity"/>
   <poly color="237,199,199" fill="1" id="330641875" layer="-1.00" shape="71.84,305.71 107.46,259.93 122.50,236.75 118.96,227.14 65.99,186.35 52.80,186.06 29.34,220.16 20.79,233.73 71.84,305.71" type="amenity"/>
   <poly color="red" fill="1" id="334577484" layer="-1.00" shape="783.83,3.58 834.68,3.71 783.83,3.58" type="building"/>
   <poly color="red" fill="0" id="353624202" layer="-1.00" shape="677.99,790.17 676.84,789.12 624.48,747.51 616.50,741.28 614.06,744.37" type="building"/>
   <poly color="235,235,227" fill="1" id="36927690" layer="-3.00" shape="553.25,778.20 560.28,769.55 566.82,765.22 571.57,769.91 592.47,755.14 591.60,750.23 592.66,745.62 594.42,742.75 616.83,759.98 623.61,774.78 810.32,266.04 658.13,318.21 609.64,221.72 449.63,120.41 349.70,50.96 203.30,12.82 168.31,-7.46 174.74,-19.68 178.45,-25.78 193.58,-22.03 137.52,-19.44 71.64,26.01 31.73,64.91 40.79,385.93 52.50,393.34 65.21,398.91 84.87,403.77 85.34,407.34 86.67,410.78 87.74,413.36 65.09,450.70 55.43,466.71 131.15,574.44 127.85,579.15 148.47,597.09 153.73,587.56 163.37,587.74 204.23,619.98 190.09,638.30 192.15,644.03 197.14,649.69 202.66,653.65 208.44,655.74 216.00,655.82 343.66,759.05 553.25,778.20" type="residential"/>
   <poly color="237,199,199" fill="1" id="451953618" layer="-1.00" shape="376.25,434.50 372.97,432.00 375.31,428.96 378.59,431.46 376.25,434.50" type="amenity"/>
   <poly color="red" fill="1" id="451953618#1" layer="-1.00" shape="376.25,434.50 372.97,432.00 375.31,428.96 378.59,431.46 376.25,434.50" type="building"/>