<?xml version="1.0" encoding="utf-8"?><!-- generated on 10/11/17 17:55:06 by SUMO netconvert Version 0.25.0
<?xml version="1.0" encoding="UTF-8"?>

<configuration xmlns:xsi="http://www.w3.org/2001/XMLSchema-instance" xsi:noNamespaceSchemaLocation="http://sumo.dlr.de/xsd/netconvertConfiguration.xsd">

    <input>
        <type-files value="osmNetconvert.typ.xml"/>
        <osm-files value="J_Neulobeda_urban_800.osm"/>
    </input>

    <output>
        <output-file value="J_Neulobeda_urban_800.net.xml"/>
    </output>

    <projection>
        <proj.utm value="true"/>
    </projection>

    <edge_removal>
        <remove-edges.by-type value="highway.track,highway.unsurfaced,highway.raceway,highway.bridleway,highway.path,highway.footway,highway.pedestrian,highway.cycleway,highway.step,highway.steps,highway.stairs,highway.bus_guideway,highway.ford,railway.rail,railway.tram,railway.light_rail,railway.subway,railway.preserved,railway.narrow_gauge,railway.monorail,railway.funicular"/>
    </edge_removal>

</configuration>
-->
<net version="0.25">
   <location convBoundary="0.00,0.00,875.96,790.28" netOffset="-682899.84,-5639545.85" origBoundary="11.600307,50.878021,11.612560,50.885499" projParameter="+proj=utm +zone=32 +ellps=WGS84 +datum=WGS84 +units=m +no_defs"/>
   <type allow="pedestrian" id="highway.bridleway" numLanes="1" oneway="1" priority="1" speed="2.78" width="2.00"/>
   <type allow="bus" id="highway.bus_guideway" numLanes="1" oneway="1" priority="1" speed="8.33"/>
   <type allow="bicycle" id="highway.cycleway" numLanes="1" oneway="0" priority="1" speed="5.56" width="1.00"/>
   <type allow="pedestrian" id="highway.footway" numLanes="1" oneway="1" priority="1" speed="8.33" width="2.00"/>
   <type allow="army" id="highway.ford" numLanes="1" oneway="0" priority="1" speed="2.78"/>
   <type disallow="tram rail_urban rail rail_electric ship" id="highway.living_street" numLanes="1" oneway="0" priority="3" speed="2.78"/>
   <type allow="private emergency authority army vip passenger hov taxi bus coach delivery truck trailer motorcycle evehicle custom1 custom2" id="highway.motorway" numLanes="2" oneway="1" priority="13" speed="44.44"/>
   <type allow="private emergency authority army vip passenger hov taxi bus coach delivery truck trailer motorcycle evehicle custom1 custom2" id="highway.motorway_link" numLanes="1" oneway="1" priority="12" speed="22.22"/>
   <type allow="bicycle pedestrian" id="highway.path" numLanes="1" oneway="1" priority="1" speed="2.78" width="2.00"/>
   <type allow="pedestrian" id="highway.pedestrian" numLanes="1" oneway="1" priority="1" speed="8.33" width="2.00"/>
   <type disallow="tram rail_urban rail rail_electric ship" id="highway.primary" numLanes="2" oneway="0" priority="9" speed="27.78"/>
   <type disallow="tram rail_urban rail rail_electric ship" id="highway.primary_link" numLanes="1" oneway="0" priority="8" speed="22.22"/>
   <type allow="vip" id="highway.raceway" numLanes="2" oneway="0" priority="14" speed="83.33"/>
   <type disallow="tram rail_urban rail rail_electric ship" id="highway.residential" numLanes="1" oneway="0" priority="4" speed="13.89"/>
   <type disallow="tram rail_urban rail rail_electric ship" id="highway.secondary" numLanes="2" oneway="0" priority="7" speed="27.78"/>
   <type disallow="tram rail_urban rail rail_electric ship" id="highway.secondary_link" numLanes="1" oneway="0" priority="6" speed="22.22"/>
   <type allow="delivery bicycle pedestrian" id="highway.service" numLanes="1" oneway="0" priority="2" speed="5.56"/>
   <type disallow="tram rail_urban rail rail_electric ship" id="highway.services" numLanes="1" oneway="0" priority="1" speed="8.33"/>
   <type allow="pedestrian" id="highway.stairs" numLanes="1" oneway="1" priority="1" speed="1.39" width="2.00"/>
   <type allow="pedestrian" id="highway.step" numLanes="1" oneway="1" priority="1" speed="1.39" width="2.00"/>
   <type allow="pedestrian" id="highway.steps" numLanes="1" oneway="1" priority="1" speed="1.39" width="2.00"/>
   <type disallow="tram rail_urban rail rail_electric ship" id="highway.tertiary" numLanes="1" oneway="0" priority="6" speed="22.22"/>
   <type disallow="tram rail_urban rail rail_electric ship" id="highway.tertiary_link" numLanes="1" oneway="0" priority="5" speed="22.22"/>
   <type disallow="tram rail_urban rail rail_electric ship" id="highway.track" numLanes="1" oneway="0" priority="1" speed="5.56"/>
   <type disallow="tram rail_urban rail rail_electric bicycle pedestrian ship" id="highway.trunk" numLanes="2" oneway="0" priority="11" speed="27.78"/>
   <type disallow="tram rail_urban rail rail_electric bicycle pedestrian ship" id="highway.trunk_link" numLanes="1" oneway="0" priority="10" speed="22.22"/>
   <type disallow="tram rail_urban rail rail_electric ship" id="highway.unclassified" numLanes="1" oneway="0" priority="5" speed="13.89"/>
   <type disallow="tram rail_urban rail rail_electric ship" id="highway.unsurfaced" numLanes="1" oneway="0" priority="1" speed="8.33"/>
   <type allow="rail_urban" id="railway.light_rail" numLanes="1" oneway="1" priority="15" speed="27.78"/>
   <type allow="rail" id="railway.preserved" numLanes="1" oneway="1" priority="15" speed="27.78"/>
   <type allow="rail rail_electric" id="railway.rail" numLanes="1" oneway="1" priority="15" speed="83.33"/>
   <type allow="rail_urban" id="railway.subway" numLanes="1" oneway="1" priority="15" speed="27.78"/>
   <type allow="tram" id="railway.tram" numLanes="1" oneway="1" priority="15" speed="13.89"/>
   <edge function="internal" id=":1249782541_0">
      <lane allow="delivery bicycle pedestrian" id=":1249782541_0_0" index="0" length="1.31" shape="868.16,194.34 868.13,195.65" speed="5.56"/>
   </edge>
   <edge function="internal" id=":1249782541_1">
      <lane allow="delivery bicycle pedestrian" id=":1249782541_1_0" index="0" length="2.41" shape="868.16,194.34 867.48,195.66 866.70,196.16" speed="5.56"/>
   </edge>
   <edge function="internal" id=":1249782541_4">
      <lane id=":1249782541_4_0" index="0" length="2.41" shape="866.70,196.16 865.84,195.84 864.88,194.71" speed="5.56"/>
   </edge>
   <edge function="internal" id=":1249782541_2">
      <lane allow="delivery bicycle pedestrian" id=":1249782541_2_0" index="0" length="0.43" shape="864.87,195.14 864.88,194.71" speed="5.56"/>
   </edge>
   <edge function="internal" id=":1249782541_3">
      <lane allow="delivery bicycle pedestrian" id=":1249782541_3_0" index="0" length="2.41" shape="864.87,195.14 865.88,194.04 866.76,193.76" speed="5.56"/>
   </edge>
   <edge function="internal" id=":1249782541_5">
      <lane id=":1249782541_5_0" index="0" length="2.41" shape="866.76,193.76 867.51,194.30 868.13,195.65" speed="5.56"/>
   </edge>
   <edge function="internal" id=":1272033635_0">
      <lane disallow="tram rail_urban rail rail_electric ship" id=":1272033635_0_0" index="0" length="0.10" shape="567.37,755.63 567.37,755.63" speed="13.89"/>
   </edge>
   <edge function="internal" id=":1272033635_1">
      <lane disallow="tram rail_urban rail rail_electric ship" id=":1272033635_1_0" index="0" length="2.41" shape="567.37,755.63 565.89,755.68 565.07,755.25" speed="13.89"/>
   </edge>
   <edge function="internal" id=":1272033635_5">
      <lane id=":1272033635_5_0" index="0" length="2.41" shape="565.07,755.25 564.93,754.33 565.46,752.94" speed="13.89"/>
   </edge>
   <edge function="internal" id=":1272033635_2">
      <lane disallow="tram rail_urban rail rail_electric ship" id=":1272033635_2_0" index="0" length="0.10" shape="563.54,750.26 563.54,750.26" speed="13.89"/>
      <lane disallow="tram rail_urban rail rail_electric ship" id=":1272033635_2_1" index="1" length="0.10" shape="565.45,752.94 565.46,752.94" speed="13.89"/>
   </edge>
   <edge function="internal" id=":1272033635_4">
      <lane disallow="tram rail_urban rail rail_electric ship" id=":1272033635_4_0" index="0" length="2.41" shape="565.45,752.94 566.94,752.89 567.76,753.33" speed="13.89"/>
   </edge>
   <edge function="internal" id=":1272033635_6">
      <lane id=":1272033635_6_0" index="0" length="2.41" shape="567.76,753.33 567.90,754.24 567.37,755.63" speed="13.89"/>
   </edge>
   <edge function="internal" id=":1277184012_0">
      <lane allow="delivery bicycle pedestrian" id=":1277184012_0_0" index="0" length="10.41" shape="297.22,114.55 294.34,115.51 292.25,116.09 290.12,116.52 287.13,117.03" speed="5.56"/>
   </edge>
   <edge function="internal" id=":1277184012_1">
      <lane allow="delivery bicycle pedestrian" id=":1277184012_1_0" index="0" length="10.88" shape="297.22,114.55 294.54,115.00 292.22,114.39 290.27,112.70 288.68,109.94" speed="5.56"/>
   </edge>
   <edge function="internal" id=":1277184012_2">
      <lane allow="delivery bicycle pedestrian" id=":1277184012_2_0" index="0" length="4.82" shape="297.22,114.55 295.78,114.18 295.12,113.53 295.24,112.61 296.15,111.43" speed="5.56"/>
   </edge>
   <edge function="internal" id=":1277184012_3">
      <lane allow="delivery bicycle pedestrian" id=":1277184012_3_0" index="0" length="5.84" shape="291.72,108.65 292.59,110.23 293.62,111.22 294.81,111.62 296.15,111.43" speed="5.56"/>
   </edge>
   <edge function="internal" id=":1277184012_4">
      <lane allow="delivery bicycle pedestrian" id=":1277184012_4_0" index="0" length="11.61" shape="291.72,108.65 292.56,111.83 292.08,114.29 290.27,116.02 287.13,117.03" speed="5.56"/>
   </edge>
   <edge function="internal" id=":1277184012_5">
      <lane allow="delivery bicycle pedestrian" id=":1277184012_5_0" index="0" length="4.82" shape="291.72,108.65 291.44,110.11 290.85,110.81 289.92,110.75 288.68,109.94" speed="5.56"/>
   </edge>
   <edge function="internal" id=":1277184012_6">
      <lane allow="delivery bicycle pedestrian" id=":1277184012_6_0" index="0" length="5.31" shape="286.58,113.77 288.02,113.31 288.85,112.52 289.07,111.40 288.68,109.94" speed="5.56"/>
   </edge>
   <edge function="internal" id=":1277184012_7">
      <lane allow="delivery bicycle pedestrian" id=":1277184012_7_0" index="0" length="9.85" shape="286.58,113.77 296.15,111.43" speed="5.56"/>
   </edge>
   <edge function="internal" id=":1277184012_8">
      <lane allow="delivery bicycle pedestrian" id=":1277184012_8_0" index="0" length="4.82" shape="286.58,113.77 287.94,114.38 288.48,115.13 288.21,116.01 287.13,117.03" speed="5.56"/>
   </edge>
   <edge function="internal" id=":1277184036_0">
      <lane disallow="tram rail_urban rail rail_electric ship" id=":1277184036_0_0" index="0" length="9.43" shape="353.49,182.46 345.92,176.83" speed="8.33"/>
   </edge>
   <edge function="internal" id=":1277184036_1">
      <lane allow="delivery bicycle pedestrian" id=":1277184036_1_0" index="0" length="5.27" shape="353.49,182.46 351.12,179.94 350.61,178.20" speed="8.33"/>
   </edge>
   <edge function="internal" id=":1277184036_2">
      <lane disallow="tram rail_urban rail rail_electric ship" id=":1277184036_2_0" index="0" length="2.41" shape="353.49,182.46 353.04,181.04 353.23,180.14" speed="8.33"/>
   </edge>
   <edge function="internal" id=":1277184036_9">
      <lane id=":1277184036_9_0" index="0" length="6.77" shape="350.61,178.20 350.40,177.49 351.32,175.10 353.90,172.79" speed="8.33"/>
   </edge>
   <edge function="internal" id=":1277184036_10">
      <lane id=":1277184036_10_0" index="0" length="2.41" shape="353.23,180.14 354.07,179.76 355.55,179.88" speed="8.33"/>
   </edge>
   <edge function="internal" id=":1277184036_3">
      <lane disallow="tram rail_urban rail rail_electric ship" id=":1277184036_3_0" index="0" length="5.42" shape="355.74,175.53 354.58,176.57 354.16,177.65 354.48,178.75 355.55,179.88" speed="8.33"/>
   </edge>
   <edge function="internal" id=":1277184036_4">
      <lane disallow="tram rail_urban rail rail_electric ship" id=":1277184036_4_0" index="0" length="10.50" shape="355.74,175.53 352.93,177.08 350.36,177.81 348.03,177.73 345.92,176.83" speed="8.33"/>
   </edge>
   <edge function="internal" id=":1277184036_5">
      <lane allow="delivery bicycle pedestrian" id=":1277184036_5_0" index="0" length="4.82" shape="355.74,175.53 354.25,175.54 353.45,175.08 353.33,174.16 353.90,172.79" speed="8.33"/>
   </edge>
   <edge function="internal" id=":1277184036_6">
      <lane allow="delivery bicycle pedestrian" id=":1277184036_6_0" index="0" length="6.64" shape="347.74,174.08 348.92,174.52 350.35,174.46 352.01,173.88 353.90,172.79" speed="8.33"/>
   </edge>
   <edge function="internal" id=":1277184036_7">
      <lane disallow="tram rail_urban rail rail_electric ship" id=":1277184036_7_0" index="0" length="9.74" shape="347.74,174.08 355.55,179.88" speed="8.33"/>
   </edge>
   <edge function="internal" id=":1277184036_8">
      <lane disallow="tram rail_urban rail rail_electric ship" id=":1277184036_8_0" index="0" length="2.57" shape="347.74,174.08 348.32,175.45 348.21,176.36 348.07,176.44" speed="8.33"/>
   </edge>
   <edge function="internal" id=":1277184036_11">
      <lane id=":1277184036_11_0" index="0" length="2.25" shape="348.07,176.44 347.41,176.83 345.92,176.83" speed="8.33"/>
   </edge>
   <edge function="internal" id=":1277184050_0">
      <lane allow="delivery bicycle pedestrian" id=":1277184050_0_0" index="0" length="6.03" shape="452.97,238.40 447.34,240.55" speed="6.95"/>
   </edge>
   <edge function="internal" id=":1277184050_1">
      <lane allow="delivery bicycle pedestrian" id=":1277184050_1_0" index="0" length="5.43" shape="452.97,238.40 451.60,238.78 450.48,238.54 449.61,237.67 448.98,236.17" speed="6.95"/>
   </edge>
   <edge function="internal" id=":1277184050_2">
      <lane allow="delivery bicycle pedestrian" id=":1277184050_2_0" index="0" length="4.82" shape="452.97,238.40 451.50,238.17 450.78,237.60 450.80,236.68 451.57,235.41" speed="5.56"/>
   </edge>
   <edge function="internal" id=":1277184050_3">
      <lane allow="delivery bicycle pedestrian" id=":1277184050_3_0" index="0" length="2.08" shape="451.64,233.44 451.81,234.20 451.86,234.79 451.78,235.19 451.57,235.41" speed="6.95"/>
   </edge>
   <edge function="internal" id=":1277184050_4">
      <lane allow="delivery bicycle pedestrian" id=":1277184050_4_0" index="0" length="9.32" shape="451.64,233.44 451.90,235.78 451.27,237.75 449.76,239.34 447.34,240.55" speed="8.33"/>
   </edge>
   <edge function="internal" id=":1277184050_5">
      <lane allow="delivery bicycle pedestrian" id=":1277184050_5_0" index="0" length="2.79" shape="451.64,233.44 452.00,235.12 451.67,236.14" speed="8.33"/>
   </edge>
   <edge function="internal" id=":1277184050_9">
      <lane id=":1277184050_9_0" index="0" length="2.79" shape="451.67,236.14 450.67,236.49 448.98,236.17" speed="8.33"/>
   </edge>
   <edge function="internal" id=":1277184050_6">
      <lane allow="delivery bicycle pedestrian" id=":1277184050_6_0" index="0" length="3.05" shape="446.23,237.44 447.46,236.99 448.33,236.62 448.83,236.35 448.98,236.17" speed="8.33"/>
   </edge>
   <edge function="internal" id=":1277184050_7">
      <lane allow="delivery bicycle pedestrian" id=":1277184050_7_0" index="0" length="5.71" shape="446.23,237.44 451.57,235.41" speed="6.95"/>
   </edge>
   <edge function="internal" id=":1277184050_8">
      <lane allow="delivery bicycle pedestrian" id=":1277184050_8_0" index="0" length="2.24" shape="446.23,237.44 447.68,237.80 448.22,238.32" speed="8.33"/>
   </edge>
   <edge function="internal" id=":1277184050_10">
      <lane id=":1277184050_10_0" index="0" length="2.58" shape="448.22,238.32 448.34,238.44 448.23,239.36 447.34,240.55" speed="8.33"/>
   </edge>
   <edge function="internal" id=":1277184067_0">
      <lane disallow="tram rail_urban rail rail_electric ship" id=":1277184067_0_0" index="0" length="4.38" shape="188.71,52.93 185.05,50.52" speed="8.33"/>
   </edge>
   <edge function="internal" id=":1277184067_1">
      <lane allow="delivery bicycle pedestrian" id=":1277184067_1_0" index="0" length="3.26" shape="188.71,52.93 187.56,51.60 187.53,50.34 187.69,50.16" speed="6.95"/>
   </edge>
   <edge function="internal" id=":1277184067_2">
      <lane disallow="tram rail_urban rail rail_electric ship" id=":1277184067_2_0" index="0" length="3.06" shape="188.71,52.93 187.75,51.67 187.63,50.70 187.99,50.35" speed="8.33"/>
   </edge>
   <edge function="internal" id=":1277184067_9">
      <lane id=":1277184067_9_0" index="0" length="3.85" shape="187.69,50.16 188.62,49.15 190.83,48.03" speed="6.95"/>
   </edge>
   <edge function="internal" id=":1277184067_10">
      <lane id=":1277184067_10_0" index="0" length="2.05" shape="187.99,50.35 188.33,50.02 189.85,49.62" speed="8.33"/>
   </edge>
   <edge function="internal" id=":1277184067_3">
      <lane disallow="tram rail_urban rail rail_electric ship" id=":1277184067_3_0" index="0" length="2.80" shape="192.29,51.00 189.85,49.62" speed="6.95"/>
   </edge>
   <edge function="internal" id=":1277184067_4">
      <lane disallow="tram rail_urban rail rail_electric ship" id=":1277184067_4_0" index="0" length="7.52" shape="192.29,51.00 190.38,51.54 188.53,51.64 186.76,51.30 185.05,50.52" speed="6.95"/>
   </edge>
   <edge function="internal" id=":1277184067_5">
      <lane allow="delivery bicycle pedestrian" id=":1277184067_5_0" index="0" length="4.84" shape="192.29,51.00 190.81,50.80 190.07,50.24 190.08,49.32 190.83,48.03" speed="5.56"/>
   </edge>
   <edge function="internal" id=":1277184067_6">
      <lane allow="delivery bicycle pedestrian" id=":1277184067_6_0" index="0" length="4.25" shape="186.74,47.69 187.73,48.15 188.74,48.36 189.78,48.32 190.83,48.03" speed="6.95"/>
   </edge>
   <edge function="internal" id=":1277184067_7">
      <lane disallow="tram rail_urban rail rail_electric ship" id=":1277184067_7_0" index="0" length="3.66" shape="186.74,47.69 189.85,49.62" speed="8.33"/>
   </edge>
   <edge function="internal" id=":1277184067_8">
      <lane disallow="tram rail_urban rail rail_electric ship" id=":1277184067_8_0" index="0" length="2.54" shape="186.74,47.69 187.38,49.03 187.31,49.95 187.20,50.02" speed="8.33"/>
   </edge>
   <edge function="internal" id=":1277184067_11">
      <lane id=":1277184067_11_0" index="0" length="2.28" shape="187.20,50.02 186.53,50.45 185.05,50.52" speed="8.33"/>
   </edge>
   <edge function="internal" id=":1277184069_0">
      <lane disallow="tram rail_urban rail rail_electric ship" id=":1277184069_0_0" index="0" length="9.13" shape="515.61,305.86 508.34,300.33" speed="8.33"/>
   </edge>
   <edge function="internal" id=":1277184069_1">
      <lane allow="delivery bicycle pedestrian" id=":1277184069_1_0" index="0" length="5.03" shape="515.61,305.86 513.66,303.73 512.96,301.71" speed="6.95"/>
   </edge>
   <edge function="internal" id=":1277184069_2">
      <lane disallow="tram rail_urban rail rail_electric ship" id=":1277184069_2_0" index="0" length="2.41" shape="515.61,305.86 515.18,304.44 515.38,303.54" speed="8.33"/>
   </edge>
   <edge function="internal" id=":1277184069_9">
      <lane id=":1277184069_9_0" index="0" length="5.46" shape="512.96,301.71 512.89,301.51 513.29,299.18 514.86,296.76" speed="6.95"/>
   </edge>
   <edge function="internal" id=":1277184069_10">
      <lane id=":1277184069_10_0" index="0" length="2.41" shape="515.38,303.54 516.23,303.16 517.71,303.31" speed="8.33"/>
   </edge>
   <edge function="internal" id=":1277184069_3">
      <lane disallow="tram rail_urban rail rail_electric ship" id=":1277184069_3_0" index="0" length="5.04" shape="517.35,298.94 516.59,300.10 516.40,301.22 516.77,302.29 517.71,303.31" speed="6.95"/>
   </edge>
   <edge function="internal" id=":1277184069_4">
      <lane disallow="tram rail_urban rail rail_electric ship" id=":1277184069_4_0" index="0" length="10.15" shape="517.35,298.94 515.22,300.81 513.01,301.67 510.72,301.51 508.34,300.33" speed="6.95"/>
   </edge>
   <edge function="internal" id=":1277184069_5">
      <lane allow="delivery bicycle pedestrian" id=":1277184069_5_0" index="0" length="4.82" shape="517.35,298.94 515.91,299.33 515.02,299.09 514.67,298.24 514.86,296.76" speed="5.56"/>
   </edge>
   <edge function="internal" id=":1277184069_6">
      <lane allow="delivery bicycle pedestrian" id=":1277184069_6_0" index="0" length="5.24" shape="510.23,297.63 511.42,298.20 512.59,298.25 513.74,297.77 514.86,296.76" speed="6.95"/>
   </edge>
   <edge function="internal" id=":1277184069_7">
      <lane disallow="tram rail_urban rail rail_electric ship" id=":1277184069_7_0" index="0" length="9.39" shape="510.23,297.63 517.71,303.31" speed="8.33"/>
   </edge>
   <edge function="internal" id=":1277184069_8">
      <lane disallow="tram rail_urban rail rail_electric ship" id=":1277184069_8_0" index="0" length="2.54" shape="510.23,297.63 510.77,299.01 510.64,299.92 510.53,299.98" speed="8.33"/>
   </edge>
   <edge function="internal" id=":1277184069_11">
      <lane id=":1277184069_11_0" index="0" length="2.28" shape="510.53,299.98 509.83,300.36 508.34,300.33" speed="8.33"/>
   </edge>
   <edge function="internal" id=":1277184071_0">
      <lane allow="delivery bicycle pedestrian" id=":1277184071_0_0" index="0" length="1.66" shape="523.11,293.54 522.68,293.51 522.29,293.59 521.94,293.77 521.62,294.06" speed="5.56"/>
   </edge>
   <edge function="internal" id=":1277184071_1">
      <lane allow="delivery bicycle pedestrian" id=":1277184071_1_0" index="0" length="2.08" shape="523.11,293.54 522.04,292.50 521.88,291.94" speed="5.56"/>
   </edge>
   <edge function="internal" id=":1277184071_4">
      <lane id=":1277184071_4_0" index="0" length="2.74" shape="521.88,291.94 521.79,291.62 522.34,290.88 523.71,290.29" speed="5.56"/>
   </edge>
   <edge function="internal" id=":1277184071_2">
      <lane allow="delivery bicycle pedestrian" id=":1277184071_2_0" index="0" length="5.07" shape="519.14,291.88 520.11,291.00 521.20,290.44 522.39,290.20 523.71,290.29" speed="5.56"/>
   </edge>
   <edge function="internal" id=":1277184071_3">
      <lane allow="delivery bicycle pedestrian" id=":1277184071_3_0" index="0" length="2.84" shape="519.14,291.88 520.57,291.50 521.46,291.73 521.63,292.13" speed="5.56"/>
   </edge>
   <edge function="internal" id=":1277184071_5">
      <lane id=":1277184071_5_0" index="0" length="1.98" shape="521.63,292.13 521.81,292.58 521.62,294.06" speed="5.56"/>
   </edge>
   <edge function="internal" id=":1474275846_0">
      <lane disallow="tram rail_urban rail rail_electric ship" id=":1474275846_0_0" index="0" length="5.01" shape="604.65,463.06 603.46,462.38 602.33,462.26 601.28,462.68 600.31,463.65" speed="5.56"/>
   </edge>
   <edge function="internal" id=":1474275846_1">
      <lane disallow="tram rail_urban rail rail_electric ship" id=":1474275846_1_0" index="0" length="10.32" shape="604.65,463.06 602.67,461.03 601.79,458.86 602.03,456.54 603.37,454.08" speed="5.56"/>
   </edge>
   <edge function="internal" id=":1474275846_2">
      <lane disallow="tram rail_urban rail rail_electric ship" id=":1474275846_2_0" index="0" length="4.82" shape="604.65,463.06 604.18,461.65 604.35,460.75 605.18,460.35 606.67,460.45" speed="2.78"/>
   </edge>
   <edge function="internal" id=":1474275846_3">
      <lane disallow="tram rail_urban rail rail_electric ship" id=":1474275846_3_0" index="0" length="5.05" shape="606.01,456.06 605.36,457.26 605.25,458.39 605.69,459.45 606.67,460.45" speed="5.56"/>
   </edge>
   <edge function="internal" id=":1474275846_4">
      <lane disallow="tram rail_urban rail rail_electric ship" id=":1474275846_4_0" index="0" length="9.50" shape="606.01,456.06 600.31,463.65" speed="8.33"/>
   </edge>
   <edge function="internal" id=":1474275846_5">
      <lane disallow="tram rail_urban rail rail_electric ship" id=":1474275846_5_0" index="0" length="2.41" shape="606.01,456.06 604.61,456.55 603.70,456.39" speed="8.33"/>
   </edge>
   <edge function="internal" id=":1474275846_9">
      <lane id=":1474275846_9_0" index="0" length="2.41" shape="603.70,456.39 603.29,455.56 603.37,454.08" speed="8.33"/>
   </edge>
   <edge function="internal" id=":1474275846_6">
      <lane disallow="tram rail_urban rail rail_electric ship" id=":1474275846_6_0" index="0" length="9.48" shape="597.67,461.66 603.37,454.08" speed="8.33"/>
   </edge>
   <edge function="internal" id=":1474275846_7">
      <lane disallow="tram rail_urban rail rail_electric ship" id=":1474275846_7_0" index="0" length="5.19" shape="597.67,461.66 599.69,459.65 601.86,458.78" speed="5.56"/>
   </edge>
   <edge function="internal" id=":1474275846_8">
      <lane disallow="tram rail_urban rail rail_electric ship" id=":1474275846_8_0" index="0" length="2.41" shape="597.67,461.66 599.08,461.17 599.98,461.34" speed="8.33"/>
   </edge>
   <edge function="internal" id=":1474275846_10">
      <lane id=":1474275846_10_0" index="0" length="5.19" shape="601.86,458.78 604.19,459.05 606.67,460.45" speed="5.56"/>
   </edge>
   <edge function="internal" id=":1474275846_11">
      <lane id=":1474275846_11_0" index="0" length="2.41" shape="599.98,461.34 600.39,462.16 600.31,463.65" speed="8.33"/>
   </edge>
   <edge function="internal" id=":1474278330_0">
      <lane disallow="tram rail_urban rail rail_electric ship" id=":1474278330_0_0" index="0" length="9.47" shape="716.70,541.24 711.05,548.83" speed="8.33"/>
   </edge>
   <edge function="internal" id=":1474278330_1">
      <lane disallow="tram rail_urban rail rail_electric ship" id=":1474278330_1_0" index="0" length="5.20" shape="716.70,541.24 714.68,543.26 712.51,544.13" speed="5.56"/>
   </edge>
   <edge function="internal" id=":1474278330_2">
      <lane disallow="tram rail_urban rail rail_electric ship" id=":1474278330_2_0" index="0" length="2.41" shape="716.70,541.24 715.30,541.73 714.39,541.57" speed="8.33"/>
   </edge>
   <edge function="internal" id=":1474278330_9">
      <lane id=":1474278330_9_0" index="0" length="5.20" shape="712.51,544.13 710.18,543.87 707.70,542.47" speed="5.56"/>
   </edge>
   <edge function="internal" id=":1474278330_10">
      <lane id=":1474278330_10_0" index="0" length="2.41" shape="714.39,541.57 713.98,540.74 714.06,539.26" speed="8.33"/>
   </edge>
   <edge function="internal" id=":1474278330_3">
      <lane disallow="tram rail_urban rail rail_electric ship" id=":1474278330_3_0" index="0" length="5.02" shape="709.72,539.85 710.91,540.53 712.04,540.66 713.09,540.23 714.06,539.26" speed="5.56"/>
   </edge>
   <edge function="internal" id=":1474278330_4">
      <lane disallow="tram rail_urban rail rail_electric ship" id=":1474278330_4_0" index="0" length="10.31" shape="709.72,539.85 711.70,541.88 712.59,544.05 712.37,546.37 711.05,548.83" speed="5.56"/>
   </edge>
   <edge function="internal" id=":1474278330_5">
      <lane disallow="tram rail_urban rail rail_electric ship" id=":1474278330_5_0" index="0" length="4.82" shape="709.72,539.85 710.19,541.26 710.01,542.17 709.18,542.57 707.70,542.47" speed="2.78"/>
   </edge>
   <edge function="internal" id=":1474278330_6">
      <lane disallow="tram rail_urban rail rail_electric ship" id=":1474278330_6_0" index="0" length="5.06" shape="708.40,546.87 709.04,545.67 709.13,544.54 708.69,543.47 707.70,542.47" speed="5.56"/>
   </edge>
   <edge function="internal" id=":1474278330_7">
      <lane disallow="tram rail_urban rail rail_electric ship" id=":1474278330_7_0" index="0" length="9.49" shape="708.40,546.87 714.06,539.26" speed="8.33"/>
   </edge>
   <edge function="internal" id=":1474278330_8">
      <lane disallow="tram rail_urban rail rail_electric ship" id=":1474278330_8_0" index="0" length="2.41" shape="708.40,546.87 709.79,546.37 710.70,546.53" speed="8.33"/>
   </edge>
   <edge function="internal" id=":1474278330_11">
      <lane id=":1474278330_11_0" index="0" length="2.41" shape="710.70,546.53 711.12,547.35 711.05,548.83" speed="8.33"/>
   </edge>
   <edge function="internal" id=":1526353775_0">
      <lane allow="delivery bicycle pedestrian" id=":1526353775_0_0" index="0" length="0.13" shape="862.52,59.87 862.52,59.75" speed="5.56"/>
   </edge>
   <edge function="internal" id=":1526353775_1">
      <lane allow="delivery bicycle pedestrian" id=":1526353775_1_0" index="0" length="2.41" shape="862.52,59.87 863.35,58.64 864.17,58.22" speed="5.56"/>
   </edge>
   <edge function="internal" id=":1526353775_4">
      <lane id=":1526353775_4_0" index="0" length="2.41" shape="864.17,58.22 865.00,58.64 865.82,59.88" speed="5.56"/>
   </edge>
   <edge function="internal" id=":1526353775_2">
      <lane allow="delivery bicycle pedestrian" id=":1526353775_2_0" index="0" length="0.39" shape="865.81,59.49 865.82,59.88" speed="5.56"/>
   </edge>
   <edge function="internal" id=":1526353775_3">
      <lane allow="delivery bicycle pedestrian" id=":1526353775_3_0" index="0" length="2.41" shape="865.81,59.49 865.08,60.79 864.29,61.26" speed="5.56"/>
   </edge>
   <edge function="internal" id=":1526353775_5">
      <lane id=":1526353775_5_0" index="0" length="2.41" shape="864.29,61.26 863.44,60.92 862.52,59.75" speed="5.56"/>
   </edge>
   <edge function="internal" id=":1634539079_0">
      <lane allow="private emergency authority army vip passenger hov taxi bus coach delivery truck trailer motorcycle evehicle custom1 custom2" id=":1634539079_0_0" index="0" length="0.48" shape="825.76,206.78 826.56,207.02" speed="22.22"/>
      <lane allow="private emergency authority army vip passenger hov taxi bus coach delivery truck trailer motorcycle evehicle custom1 custom2" id=":1634539079_0_1" index="1" length="0.48" shape="824.91,209.97 825.49,210.14" speed="22.22"/>
      <lane allow="private emergency authority army vip passenger hov taxi bus coach delivery truck trailer motorcycle evehicle custom1 custom2" id=":1634539079_0_2" index="2" length="0.48" shape="824.07,213.16 824.41,213.26" speed="22.22"/>
      <lane allow="private emergency authority army vip passenger hov taxi bus coach delivery truck trailer motorcycle evehicle custom1 custom2" id=":1634539079_0_3" index="3" length="0.48" shape="823.23,216.35 823.34,216.38" speed="22.22"/>
   </edge>
   <edge function="internal" id=":1712853801_0">