<?xml version="1.0" encoding="utf-8"?><!-- generated on 10/11/17 17:55:22 by SUMO polyconvert Version 0.25.0
<?xml version="1.0" encoding="UTF-8"?>

<configuration xmlns:xsi="http://www.w3.org/2001/XMLSchema-instance" xsi:noNamespaceSchemaLocation="http://sumo.dlr.de/xsd/polyconvertConfiguration.xsd">

    <input>
        <net-file value="K_AirportBP_industrial_800.net.xml"/>
        <osm-files value="K_AirportBP_industrial_800.osm"/>
        <type-file value="osmPolyconvert.typ.xml"/>
    </input>

    <output>
        <output-file value="K_AirportBP_industrial_800.poly.xml"/>
    </output>

    <projection>
        <proj.utm value="true"/>
    </projection>

    <processing>
        <poi-layer-offset value="5"/>
    </processing>

</configuration>
-->
<additional>
   <location convBoundary="0.00,-0.00,944.56,869.99" netOffset="-362991.62,-5641374.19" origBoundary="7.051209,50.907904,7.064413,50.915595" projParameter="+proj=utm +zone=32 +ellps=WGS84 +datum=WGS84 +units=m +no_defs"/>
   <poly color="red" fill="1" id="119755474" layer="-1.00" shape="343.23,341.86 359.17,349.95 357.69,352.84 358.88,353.47 358.93,353.38 364.45,356.25 350.17,383.85 349.43,385.12 346.68,390.60 341.28,387.80 340.06,387.08 334.57,384.32 337.48,378.69 337.60,378.73 338.15,377.63 327.48,372.10 343.23,341.86" type="building"/>
   <poly color="red" fill="1" id="119755475" layer="-1.00" shape="728.42,626.51 750.58,426.16 938.98,638.44 938.34,649.73 728.42,626.51" type="building"/>
   <poly color="red" fill="1" id="142716837" layer="-1.00" shape="453.51,389.13 474.12,347.10 489.18,355.05 490.07,353.34 492.20,349.28 492.01,349.17 492.62,348.01 493.80,348.63 493.68,348.86 496.65,350.41 496.77,350.18 497.61,350.62 497.55,350.74 499.55,351.79 499.61,351.68 500.44,352.11 500.31,352.34 503.66,354.09 503.78,353.86 504.94,354.47 504.33,355.64 504.10,355.52 501.18,361.08 501.42,361.20 500.84,362.29 500.61,362.18 497.71,367.73 497.94,367.84 497.37,368.93 497.14,368.81 494.22,374.37 494.46,374.50 493.89,375.58 493.66,375.47 490.74,381.02 490.98,381.13 490.41,382.22 490.19,382.10 487.26,387.66 487.49,387.79 486.88,388.95 485.71,388.35 485.77,388.24 479.97,385.21 479.38,386.32 479.51,386.40 472.80,399.19 453.51,389.13" type="building"/>
   <poly color="red" fill="1" id="142716840" layer="-1.00" shape="509.24,458.06 503.91,468.19 488.87,460.32 485.84,466.09 485.95,466.15 485.33,467.33 484.15,466.71 484.27,466.49 480.94,464.75 480.83,464.96 479.74,464.39 479.79,464.28 476.45,462.53 476.39,462.63 475.31,462.06 475.42,461.83 472.08,460.09 471.96,460.30 470.77,459.69 471.40,458.50 471.62,458.63 474.53,453.08 474.30,452.96 474.87,451.88 475.09,452.00 478.01,446.44 477.77,446.33 478.33,445.26 478.56,445.37 479.94,442.73 509.24,458.06" type="building"/>
   <poly color="red" fill="1" id="142716841" layer="-1.00" shape="611.78,801.09 608.23,799.66 606.68,803.46 609.10,807.93 605.43,810.00 607.08,813.00 603.38,815.03 605.05,818.02 601.35,820.07 603.01,823.07 599.30,825.11 600.94,828.12 597.23,830.19 598.92,833.17 597.26,834.11 595.94,837.18 597.10,837.66 539.37,849.57 599.22,700.22 624.85,710.49 620.84,720.51 637.45,727.10 632.91,738.23 636.50,739.62 631.96,750.96 628.38,749.57 616.57,778.89 618.97,783.28 615.24,785.31 616.90,788.34 611.78,801.09" type="building"/>
   <poly color="red" fill="1" id="142716842" layer="-1.00" shape="633.19,368.09 653.06,325.74 735.15,363.64 715.53,406.06 633.19,368.09" type="building"/>
   <poly color="red" fill="1" id="142716843" layer="-1.00" shape="631.91,162.85 643.58,140.58 691.86,165.78 680.21,188.11 631.91,162.85" type="building"/>
   <poly color="red" fill="1" id="142716844" layer="-1.00" shape="422.24,506.36 422.48,506.48 421.85,507.66 420.67,507.05 420.73,506.92 415.19,504.03 415.13,504.14 414.04,503.57 414.15,503.37 410.26,501.34 405.82,499.09 401.40,496.69 396.96,494.45 392.55,492.04 388.11,489.81 384.27,487.71 384.16,487.91 383.06,487.34 383.12,487.23 377.57,484.34 377.52,484.44 376.34,483.82 376.96,482.64 377.19,482.76 380.11,477.21 379.87,477.09 380.45,475.99 380.67,476.12 383.58,470.57 383.35,470.46 383.92,469.36 384.15,469.48 387.07,463.93 386.84,463.80 387.40,462.72 387.63,462.83 390.54,457.30 390.31,457.19 390.92,456.00 392.11,456.63 391.94,456.96 408.59,465.65 409.30,464.31 409.51,464.43 411.84,459.99 411.61,459.86 412.78,457.64 412.66,457.58 413.28,456.39 414.46,457.02 414.34,457.26 417.62,458.97 417.74,458.73 418.84,459.30 418.78,459.41 422.13,461.16 422.18,461.04 423.26,461.60 423.14,461.84 426.48,463.59 426.60,463.35 427.79,463.98 427.17,465.15 427.06,465.10 425.31,468.44 425.43,468.50 424.86,469.57 424.75,469.52 422.86,473.12 435.09,479.51 435.26,479.19 436.44,479.81 435.82,481.00 435.59,480.87 432.68,486.42 432.92,486.54 432.34,487.64 432.12,487.52 429.19,493.08 429.43,493.21 428.86,494.29 428.63,494.18 425.72,499.72 425.96,499.83 425.39,500.91 425.16,500.80 422.24,506.36" type="building"/>
   <poly color="red" fill="1" id="142716846" layer="-1.00" shape="364.49,687.02 406.15,607.10 442.27,625.92 436.89,636.24 443.26,639.56 434.82,655.75 436.90,656.84 409.08,710.26 364.49,687.02" type="building"/>
   <poly color="red" fill="1" id="142716847" layer="-1.00" shape="483.45,658.20 480.58,656.68 485.34,647.59 513.75,662.45 541.42,676.92 536.68,685.99 505.15,746.26 451.99,718.46 483.45,658.20" type="building"/>
   <poly color="red" fill="1" id="142716848" layer="-1.00" shape="469.84,541.12 450.66,531.07 454.15,524.42 448.46,521.45 448.41,521.55 447.23,520.93 447.85,519.76 448.08,519.88 450.98,514.33 450.75,514.20 451.31,513.14 451.54,513.26 454.46,507.66 454.24,507.54 454.80,506.47 455.03,506.59 457.93,501.04 457.71,500.90 458.27,499.84 458.50,499.95 461.41,494.38 461.18,494.26 461.74,493.19 461.97,493.31 464.89,487.75 464.66,487.63 465.27,486.45 466.46,487.07 466.34,487.30 469.67,489.04 469.79,488.82 473.48,490.75 473.41,490.86 476.36,492.41 476.44,492.29 477.60,492.91 476.99,494.08 476.88,494.03 475.07,497.48 474.95,497.42 473.72,499.76 487.74,507.10 469.84,541.12" type="building"/>
   <poly color="red" fill="1" id="142716849" layer="-1.00" shape="872.58,803.18 884.75,709.29 944.56,716.77 932.46,810.90 872.58,803.18" type="building"/>
   <poly color="red" fill="1" id="142716850" layer="-1.00" shape="568.70,349.50 555.89,342.81 552.87,348.57 552.97,348.63 552.34,349.81 551.25,349.25 551.31,349.14 545.76,346.24 545.70,346.34 537.95,342.28 539.12,340.06 526.40,333.40 547.86,292.61 574.95,306.78 574.82,307.03 580.31,309.90 580.42,309.67 587.66,313.46 568.70,349.50" type="building"/>
   <poly color="red" fill="1" id="142716851" layer="-1.00" shape="541.42,602.04 576.51,534.95 578.13,535.80 581.37,529.60 579.76,528.75 579.99,528.29 673.73,577.24 673.67,577.37 666.50,591.07 635.08,651.04 541.42,602.04" type="building"/>
   <poly color="red" fill="1" id="142716852" layer="-1.00" shape="588.20,287.83 595.37,274.12 622.36,288.27 615.18,301.96 598.88,293.43 588.20,287.83" type="building"/>
   <poly color="red" fill="1" id="142716853" layer="-1.00" shape="541.35,278.55 487.96,250.73 522.76,183.92 538.95,164.13 559.37,146.48 583.02,134.09 595.87,140.72 598.10,136.42 620.88,148.16 608.07,172.71 598.97,167.97 541.35,278.55" type="building"/>
   <poly color="red" fill="1" id="142716854" layer="-1.00" shape="682.94,277.94 687.46,237.40 743.81,243.55 747.29,243.95 742.84,284.54 686.26,278.32 682.94,277.94" type="building"/>
   <poly color="red" fill="1" id="142716855" layer="-1.00" shape="769.03,221.70 774.15,175.76 835.11,182.64 837.89,182.97 837.11,189.85 832.68,228.90 831.81,236.52 779.39,230.55 779.00,234.14 778.46,234.07 778.37,234.90 778.92,234.96 778.08,242.85 777.54,242.79 777.45,243.58 777.99,243.63 777.70,246.44 766.40,245.24 766.74,242.20 767.28,242.25 767.37,241.45 766.83,241.39 767.71,233.54 768.20,233.60 768.29,232.79 767.80,232.74 769.03,221.70" type="building"/>
   <poly color="red" fill="1" id="142716856" layer="-1.00" shape="707.00,775.39 714.78,715.43 814.24,728.29 806.53,788.14 707.00,775.39" type="building"/>
   <poly color="red" fill="0" id="142716857" layer="-1.00" shape="419.51,795.29 460.18,816.53 443.92,847.65" type="building"/>
   <poly color="red" fill="0" id="142716858" layer="-1.00" shape="819.39,804.59 931.47,819.06" type="building"/>
   <poly color="red" fill="1" id="142716859" layer="-1.00" shape="858.01,312.81 768.59,302.94 771.81,273.09 846.74,281.37 845.97,288.43 860.47,290.04 867.93,290.86 865.47,313.62 858.01,312.81" type="building"/>
   <poly color="red" fill="0" id="166716031" layer="-1.00" shape="17.84,429.88 22.12,421.03 150.45,326.83 216.37,279.74 314.60,209.19 530.77,46.16" type="building"/>
   <poly color="red" fill="1" id="166955313" layer="-1.00" shape="390.81,522.72 378.67,526.50 379.26,528.37 377.35,528.96 376.77,527.11 370.83,528.96 370.35,527.43 365.90,527.86 361.60,526.59 358.11,523.77 355.97,519.86 354.41,520.34 354.21,519.71 362.36,517.17 362.26,515.73 362.76,514.37 363.77,513.32 365.11,512.78 366.52,512.47 367.94,512.75 369.13,513.60 369.87,514.84 386.71,509.61 390.81,522.72" type="building"/>
   <poly color="red" fill="1" id="172322031" layer="-1.00" shape="221.22,84.74 218.19,44.10 243.48,42.23 246.50,82.84 221.22,84.74" type="building"/>
   <poly color="red" fill="1" id="172322033" layer="-1.00" shape="73.46,111.46 72.07,90.78 102.03,88.75 101.48,80.77 93.96,81.29 93.44,73.32 100.94,72.81 100.05,59.92 70.13,61.92 68.39,36.26 177.07,28.94 182.15,104.13 73.46,111.46" type="building"/>
   <poly color="red" fill="1" id="172322034" layer="-1.00" shape="333.22,48.02 334.07,59.63 335.30,59.54 335.31,59.42 341.62,58.95 342.07,65.02 341.97,65.02 342.08,66.46 342.63,72.55 342.53,72.55 342.63,73.98 343.18,80.05 336.89,80.51 336.86,80.39 335.61,80.48 336.51,92.93 305.68,95.25 305.06,86.84 305.35,86.83 304.86,80.28 304.57,80.31 303.39,64.42 303.68,64.37 303.19,57.86 302.91,57.87 302.34,50.28 333.22,48.02" type="building"/>
   <poly color="red" fill="1" id="172322035" layer="-1.00" shape="246.94,88.65 246.50,82.84 243.48,42.23 243.14,37.36 249.46,36.88 252.77,82.14 258.90,81.67 259.32,87.73 246.94,88.65" type="building"/>
   <poly color="red" fill="1" id="172322036" layer="-1.00" shape="290.43,185.93 288.65,184.73 288.46,184.89 288.22,184.98 287.96,184.99 287.70,184.91 287.49,184.75 287.37,184.53 287.28,184.26 287.41,183.88 284.44,181.34 282.55,179.45 282.29,179.56 282.00,179.59 281.73,179.51 281.49,179.34 281.34,179.10 281.28,178.81 281.33,178.53 280.05,177.00 278.47,174.81 277.41,173.15 276.97,173.05 276.66,172.77 276.50,172.32 276.65,171.84 275.76,170.25 275.03,168.65 274.42,167.11 273.82,166.82 273.64,166.31 273.78,165.82 274.11,165.56 273.98,165.17 273.13,162.30 273.05,161.99 272.34,161.71 272.16,161.15 272.27,160.75 272.45,160.53 272.04,158.49 271.70,155.25 271.38,155.01 271.24,154.53 271.36,154.07 271.65,153.81 271.63,151.77 271.77,149.10 272.01,147.18 271.75,146.86 271.64,146.47 271.90,145.91 272.54,145.68 273.03,143.27 274.20,139.37 273.89,139.12 273.72,138.65 273.96,138.14 274.39,137.89 274.74,137.95 275.77,135.57 277.15,133.02 276.97,132.42 277.08,131.94 277.71,131.54 278.34,131.91 278.57,132.59 280.89,133.86 283.30,135.41 283.52,135.23 283.80,135.14 284.11,135.18 284.36,135.34 284.54,135.58 284.64,135.86 284.50,136.27 287.79,139.11 289.36,140.71 289.86,140.50 290.46,140.80 290.62,141.33 290.40,141.81 292.98,145.17 294.25,147.14 294.60,147.04 294.96,147.13 295.19,147.31 295.40,147.74 295.26,148.20 295.01,148.43 296.37,151.11 297.26,153.20 297.53,153.15 297.88,153.26 298.12,153.49 298.27,153.87 298.14,154.32 297.80,154.60 298.87,158.21 298.98,158.18 299.41,158.33 299.63,158.56 299.76,158.92 299.62,159.39 299.19,159.70 299.54,161.63 299.91,164.87 300.31,164.97 300.59,165.29 300.68,165.62 300.55,166.10 299.97,166.41 299.98,168.38 299.82,171.02 299.62,172.93 300.10,173.21 300.26,173.65 300.17,174.00 299.94,174.30 299.57,174.45 299.38,174.42 299.01,176.33 298.31,178.95 297.70,180.78 298.03,181.05 298.18,181.46 298.04,181.93 297.51,182.28 297.19,182.19 295.87,185.13 294.78,187.16 294.96,187.74 294.82,188.24 294.21,188.56 293.57,188.25 293.37,187.58 290.43,185.93" type="building"/>
   <poly color="237,199,199" fill="1" id="172326578" layer="-1.00" shape="147.26,250.04 151.30,246.22 141.74,236.28 148.82,229.41 145.94,226.43 149.24,223.24 171.35,246.26 168.36,249.13 171.76,252.64 164.71,259.53 167.47,262.37 163.10,266.52 147.26,250.04" type="amenity"/>
   <poly color="red" fill="1" id="172326578#1" layer="-1.00" shape="147.26,250.04 151.30,246.22 141.74,236.28 148.82,229.41 145.94,226.43 149.24,223.24 171.35,246.26 168.36,249.13 171.76,252.64 164.71,259.53 167.47,262.37 163.10,266.52 147.26,250.04" type="building"/>
   <poly color="red" fill="1" id="189079660" layer="-1.00" shape="414.06,43.25 429.68,49.66 431.62,44.97 441.94,49.22 450.27,52.64 467.37,59.67 467.32,59.81 468.26,60.20 468.32,60.06 472.00,61.58 470.48,65.26 470.25,65.17 469.03,68.13 469.25,68.23 467.73,71.89 466.60,71.41 465.96,75.43 467.19,75.31 467.49,79.28 467.25,79.29 467.49,82.49 467.72,82.49 468.01,86.44 464.04,86.73 464.01,86.62 463.00,86.68 463.01,86.82 444.32,88.20 435.53,88.84 424.47,89.67 423.55,77.13 416.60,77.59 414.14,44.29 414.06,43.25" type="building"/>
   <poly color="184,184,179" fill="1" id="189079666" layer="-1.00" shape="460.96,174.85 469.22,158.42 472.60,160.11 464.35,176.54 460.96,174.85" type="parking"/>
   <poly color="184,184,179" fill="1" id="189079667" layer="-1.00" shape="473.91,149.94 477.03,151.46 481.46,142.40 478.34,140.88 473.91,149.94" type="parking"/>
   <poly color="184,184,179" fill="1" id="189079668" layer="-1.00" shape="487.59,123.03 493.19,111.51 496.09,112.92 490.48,124.43 487.59,123.03" type="parking"/>
   <poly color="red" fill="1" id="207902090" layer="-1.00" shape="221.16,566.97 221.24,566.80 219.90,566.11 219.81,566.28 214.54,563.56 220.84,551.36 219.42,550.63 217.99,553.37 215.32,553.64 212.79,553.56 210.09,552.93 207.82,552.00 205.56,550.55 203.68,548.84 202.11,546.73 200.82,544.50 202.26,541.71 200.85,540.99 194.54,553.22 189.27,550.49 189.36,550.31 188.01,549.62 187.92,549.79 182.65,547.06 190.54,531.79 190.92,531.97 192.35,531.03 193.68,529.99 195.42,528.23 196.83,526.18 197.75,523.96 198.14,521.78 198.20,518.35 198.13,517.92 197.78,517.75 205.67,502.47 210.96,505.21 210.86,505.38 212.21,506.08 212.29,505.90 217.57,508.62 211.26,520.83 212.66,521.56 214.10,518.77 216.79,518.37 219.34,518.52 221.91,518.99 224.34,520.08 226.64,521.46 228.49,523.28 230.17,525.41 231.27,527.72 229.84,530.50 231.24,531.22 237.57,518.96 242.84,521.69 242.75,521.87 244.09,522.57 244.19,522.38 249.47,525.10 247.80,528.34 247.61,528.24 246.50,530.40 246.68,530.48 241.62,540.28 241.44,540.20 240.98,541.10 241.16,541.21 241.01,541.49 242.79,542.41 242.68,544.14 242.35,545.82 241.84,547.52 241.14,549.05 240.26,550.54 239.20,551.92 237.93,553.21 236.65,554.21 234.90,553.31 229.20,564.33 229.03,564.24 227.92,566.38 228.11,566.46 226.43,569.70 221.16,566.97" type="building"/>
   <poly color="red" fill="1" id="207902092" layer="-1.00" shape="117.03,701.72 114.16,707.28 101.31,700.65 115.81,672.58 116.08,672.71 119.52,666.05 119.26,665.90 133.77,637.83 146.63,644.47 143.76,650.02 137.12,662.88 132.29,672.21 133.41,672.80 129.62,680.11 128.51,679.52 123.68,688.86 117.03,701.72" type="building"/>
   <poly color="237,199,199" fill="1" id="207902093" layer="-1.00" shape="66.45,518.17 62.64,525.51 50.67,519.34 54.48,511.98 39.27,504.14 35.47,511.49 23.50,505.31 27.31,497.96 12.10,490.10 23.39,438.85 35.38,445.04 17.59,479.41 32.79,487.26 47.14,459.54 59.12,465.74 44.77,493.45 59.98,501.29 74.32,473.57 86.30,479.76 84.26,483.72 77.45,496.90 72.01,507.40 66.45,518.17" type="amenity"/>
   <poly color="red" fill="1" id="207902093#1" layer="-1.00" shape="66.45,518.17 62.64,525.51 50.67,519.34 54.48,511.98 39.27,504.14 35.47,511.49 23.50,505.31 27.31,497.96 12.10,490.10 23.39,438.85 35.38,445.04 17.59,479.41 32.79,487.26 47.14,459.54 59.12,465.74 44.77,493.45 59.98,501.29 74.32,473.57 86.30,479.76 84.26,483.72 77.45,496.90 72.01,507.40 66.45,518.17" type="building"/>
   <poly color="red" fill="1" id="207902094" layer="-1.00" shape="40.89,371.40 39.17,374.87 31.62,371.01 27.77,369.01 38.60,347.72 42.46,349.67 50.04,353.49 48.28,356.98 40.89,371.40" type="building"/>
   <poly color="red" fill="0" id="207902098" layer="-1.00" shape="45.44,613.49 33.72,636.29 38.15,638.58 35.68,643.37 31.24,641.08 19.51,663.89" type="building"/>
   <poly color="red" fill="1" id="207902100" layer="-1.00" shape="55.82,318.42 56.32,317.82 49.79,312.23 48.60,313.62 48.32,313.37 49.00,312.57 29.92,296.22 43.20,280.73 62.54,297.32 62.05,297.89 68.59,303.53 69.10,302.94 84.48,316.12 71.20,331.60 55.82,318.42" type="building"/>
   <poly color="red" fill="1" id="207902102" layer="-1.00" shape="117.76,824.91 115.11,823.52 104.52,818.01 120.49,787.07 108.44,780.87 110.71,776.48 112.67,777.48 115.75,771.54 123.40,775.47 123.47,775.33 125.85,776.56 141.93,745.44 144.59,746.82 155.16,752.33 117.76,824.91" type="building"/>
   <poly color="237,199,255" fill="1" id="207902102#1" layer="-1.00" shape="117.76,824.91 115.11,823.52 104.52,818.01 120.49,787.07 108.44,780.87 110.71,776.48 112.67,777.48 115.75,771.54 123.40,775.47 123.47,775.33 125.85,776.56 141.93,745.44 144.59,746.82 155.16,752.33 117.76,824.91" type="shop"/>
   <poly color="red" fill="1" id="207902103" layer="-1.00" shape="11.00,385.45 18.35,370.97 13.30,380.93 12.17,380.36 11.54,381.61 12.64,382.18 11.62,384.19 10.52,383.63 9.87,384.88 11.00,385.45" type="building"/>
   <poly color="red" fill="1" id="207932986" layer="-1.00" shape="197.65,183.63 200.23,181.16 234.00,178.58 235.13,177.53 238.11,180.60 256.78,200.02 264.94,208.55 239.45,227.15 197.65,183.63" type="building"/>
   <poly color="red" fill="1" id="207932988" layer="-1.00" shape="469.51,124.59 474.43,127.04 481.23,130.58 456.54,178.33 444.83,172.28 458.72,145.43 469.51,124.59" type="building"/>
   <poly color="red" fill="1" id="207932989" layer="-1.00" shape="196.40,174.34 194.17,144.31 222.92,142.16 225.13,172.20 196.40,174.34" type="building"/>
   <poly color="red" fill="1" id="207932990" layer="-1.00" shape="147.38,175.52 144.72,139.62 184.62,136.69 186.87,167.23 185.04,172.75 147.38,175.52" type="building"/>
   <poly color="red" fill="1" id="207932993" layer="-1.00" shape="191.37,231.17 172.81,211.89 193.71,191.80 212.28,211.08 203.26,219.76 191.37,231.17" type="building"/>
   <poly color="red" fill="1" id="207933051" layer="-1.00" shape="252.77,82.14 249.46,36.88 268.69,35.45 272.03,80.63 258.90,81.67 252.77,82.14" type="building"/>
   <poly color="207,245,201" fill="0" id="207955520" layer="-2.00" shape="26.81,259.72 110.68,333.89 119.45,325.69 50.15,239.16 19.62,210.30" type="tourism"/>
   <poly color="red" fill="1" id="208446611" layer="-1.00" shape="161.07,635.18 196.03,565.50 209.90,572.42 174.95,642.10 161.07,635.18" type="building"/>
   <poly color="red" fill="1" id="214762294" layer="-1.00" shape="870.91,104.98 875.92,94.02 894.19,102.37 889.20,113.30 870.91,104.98" type="building"/>
   <poly color="red" fill="0" id="214762296" layer="-1.00" shape="907.94,171.29 905.45,146.58 907.98,171.36" type="building"/>
   <poly color="red" fill="1" id="214762297" layer="-1.00" shape="857.64,155.81 859.10,142.71 888.72,146.04 887.08,159.08 857.64,155.81" type="building"/>
   <poly color="red" fill="1" id="214762299" layer="-1.00" shape="839.88,94.40 841.69,78.16 869.10,90.56 862.69,104.72 839.88,94.40" type="building"/>
   <poly color="red" fill="1" id="214762300" layer="-1.00" shape="863.46,270.32 864.60,259.23 876.62,260.47 875.48,271.55 863.46,270.32" type="building"/>
   <poly color="red" fill="1" id="214762302" layer="-1.00" shape="923.19,114.74 920.75,89.83 923.19,114.74" type="building"/>
   <poly color="red" fill="1" id="214762304" layer="-1.00" shape="837.11,189.85 837.89,182.97 835.11,182.64 835.34,180.70 853.80,182.78 853.56,184.81 853.45,184.80 852.67,191.61 837.11,189.85" type="building"/>
   <poly color="red" fill="1" id="214762305" layer="-1.00" shape="866.11,43.82" type="building"/>
   <poly color="red" fill="1" id="214762307" layer="-1.00" shape="856.14,223.26 855.37,222.44 849.29,221.75 852.67,191.61 853.45,184.80 853.56,184.81 859.61,185.51 860.47,184.80 861.21,185.70 866.73,186.31 866.25,190.55 866.79,190.62 867.68,192.61 866.33,193.89 865.89,193.82 862.57,223.25 856.85,222.60 856.14,223.26" type="building"/>
   <poly color="red" fill="1" id="214762310" layer="-1.00" shape="853.92,54.99 849.01,4.24 861.86,2.99 866.11,43.82 867.11,53.72 853.92,54.99" type="building"/>
   <poly color="red" fill="1" id="214762313" layer="-1.00" shape="779.40,127.92 786.30,67.59 787.45,57.59 808.67,60.02 811.27,68.13 814.41,68.49 814.13,70.82 828.85,72.53 821.96,132.79 779.40,127.92" type="building"/>
   <poly color="red" fill="1" id="214762315" layer="-1.00" shape="699.34,329.55 700.05,323.36 694.44,322.74 685.73,321.74 685.69,321.89 684.94,321.80 685.10,320.60 685.28,320.01 685.78,315.58 678.44,314.80 670.77,313.95 671.67,305.80 674.85,277.06 682.94,277.94 686.26,278.32 742.84,284.54 736.66,340.00 721.03,338.27 721.74,332.11 699.34,329.55" type="building"/>
   <poly color="red" fill="1" id="214762317" layer="-1.00" shape="687.46,237.40 688.32,231.20 711.41,189.17 733.45,191.63 742.65,218.17 745.31,229.92 743.81,243.55 687.46,237.40" type="building"/>
   <poly color="red" fill="1" id="216254418" layer="-1.00" shape="512.97,760.52 514.89,756.86 550.79,775.73 552.21,776.51 560.84,760.12 565.98,762.97 555.61,782.81 512.97,760.52" type="building"/>
   <poly color="red" fill="1" id="216254420" layer="-1.00" shape="312.00,860.30 313.50,861.08 311.89,864.20 313.13,864.85 312.80,865.51 312.44,865.33 276.86,853.51 277.39,852.52 277.24,852.45 284.35,838.99 339.48,734.40 352.00,740.87 351.75,741.33 361.34,746.29 368.65,750.09 368.91,749.58 372.38,751.37 373.88,752.16 370.48,758.72 371.37,759.16 368.21,765.20 362.99,762.48 337.77,810.86 338.59,811.29 339.31,809.96 340.49,809.83 344.70,812.05 344.84,813.12 342.22,818.40 340.96,818.56 336.79,816.36 336.41,815.33 337.15,813.96 336.39,813.52 312.00,860.30" type="building"/>
   <poly color="red" fill="1" id="216254421" layer="-1.00" shape="645.83,827.62 638.24,824.57 637.64,826.06 632.75,824.06 633.33,822.61 622.38,818.20 644.75,762.43 668.23,771.80 645.83,827.62" type="building"/>
   <poly color="red" fill="1" id="216254422" layer="-1.00" shape="315.32,479.32 318.44,473.11 326.27,477.05 323.15,483.26 315.32,479.32" type="building"/>
   <poly color="red" fill="1" id="216254423" layer="-1.00" shape="317.05,465.65 317.28,465.17 319.03,461.69 330.99,467.68 329.00,471.65 317.05,465.65" type="building"/>
   <poly color="red" fill="1" id="216254424" layer="-1.00" shape="532.32,718.50 545.23,693.71 583.11,713.44 570.02,738.59 532.32,718.50" type="building"/>
   <poly color="red" fill="1" id="216254425" layer="-1.00" shape="915.46,681.41 915.17,673.77 930.25,673.19 930.54,680.84 915.46,681.41" type="building"/>
   <poly color="red" fill="1" id="216254426" layer="-1.00" shape="650.87,850.99 656.58,836.75 694.10,851.82 650.87,850.99" type="building"/>
   <poly color="red" fill="1" id="216254427" layer="-1.00" shape="324.68,448.67 327.89,442.36 335.89,446.44 332.87,452.83 324.68,448.67" type="building"/>
   <poly color="red" fill="1" id="216254428" layer="-1.00" shape="632.19,709.82 645.31,715.03 647.78,708.84 634.66,703.62 632.19,709.82" type="building"/>
   <poly color="red" fill="1" id="216254429" layer="-1.00" shape="664.38,738.62 663.86,739.95 659.70,738.30 660.22,736.95 657.08,735.69 661.35,725.08 664.73,726.44 665.32,725.00 668.97,726.47 668.39,727.91 681.90,733.33 677.63,743.95 664.38,738.62" type="building"/>
   <poly color="red" fill="1" id="216254430" layer="-1.00" shape="330.56,438.00 334.42,430.40 339.02,432.57 338.85,432.94 342.01,434.43 342.32,434.77 342.57,435.49 342.35,436.29 341.88,436.75 341.21,437.02 340.69,436.93 338.19,441.87 330.56,438.00" type="building"/>
   <poly color="red" fill="1" id="216254432" layer="-1.00" shape="322.67,420.98 327.78,410.75 334.90,414.24 329.78,424.57 322.67,420.98" type="building"/>
   <poly color="red" fill="1" id="216254433" layer="-1.00" shape="438.33,791.59 428.17,786.25 452.80,739.27 462.97,744.63 438.33,791.59" type="building"/>
   <poly color="red" fill="1" id="216254435" layer="-1.00" shape="761.10,170.83 750.96,169.73 743.18,168.95 743.75,163.72 751.54,93.54 769.40,95.49 761.10,170.83" type="building"/>
   <poly color="red" fill="1" id="216254436" layer="-1.00" shape="338.47,669.52 303.01,650.88 337.89,584.45 373.24,603.16 338.47,669.52" type="building"/>
   <poly color="red" fill="1" id="216254437" layer="-1.00" shape="356.50,859.15" type="building"/>
   <poly color="red" fill="1" id="216254438" layer="-1.00" shape="868.49,740.06 870.11,727.61 829.93,722.37 828.31,734.82 848.11,737.40 868.49,740.06" type="building"/>
   <poly color="red" fill="1" id="216254440" layer="-1.00" shape="512.83,755.76 525.91,730.76 563.75,750.83 550.79,775.73 514.89,756.86 512.83,755.76" type="building"/>
   <poly color="red" fill="1" id="216254441" layer="-1.00" shape="868.49,740.06 848.11,737.40 844.28,766.76 852.45,767.84 851.14,777.88 863.34,779.47 868.49,740.06" type="building"/>
   <poly color="red" fill="1" id="216254442" layer="-1.00" shape="651.62,748.98 655.99,738.09 659.15,739.36 659.59,738.28 663.86,739.95 663.99,740.01 663.54,741.13 670.38,743.88 668.42,748.77 677.68,752.51 675.26,758.53 651.62,748.98" type="building"/>
   <poly color="red" fill="1" id="216254443" layer="-1.00" shape="371.43,807.84 362.82,803.33 366.41,796.49 366.94,796.76 373.40,784.45 378.56,787.17 381.47,788.68 378.16,794.99 371.43,807.84" type="building"/>
   <poly color="red" fill="1" id="216254444" layer="-1.00" shape="752.38,192.99 752.81,187.90 750.63,187.63 751.14,182.75 759.68,183.44 758.77,193.48 752.38,192.99" type="building"/>
   <poly color="red" fill="1" id="216254445" layer="-1.00" shape="844.28,766.76 839.58,766.15 836.25,791.67 861.33,794.93 863.34,779.47 851.14,777.88 852.45,767.84 844.28,766.76" type="building"/>
   <poly color="red" fill="1" id="216254446" layer="-1.00" shape="539.37,849.57" type="building"/>
   <poly color="red" fill="1" id="216254447" layer="-1.00" shape="724.43,792.22 720.79,820.12 710.72,818.81 709.62,827.28 719.76,828.61 716.55,853.23 801.04,833.18 805.02,802.73 724.43,792.22" type="building"/>
   <poly color="red" fill="1" id="216254448" layer="-1.00" shape="372.38,751.37 368.91,749.58 368.65,750.09 361.34,746.29 373.13,723.61 359.39,716.39 359.46,716.25 359.18,716.10 364.51,705.96 364.83,706.10 364.94,705.88 404.21,726.19 404.05,726.50 404.32,726.64 399.05,736.78 398.74,736.62 398.56,736.96 387.97,731.40 387.31,732.71 388.16,735.21 383.86,736.38 383.18,733.94 381.80,733.21 372.38,751.37" type="building"/>
   <poly color="184,184,179" fill="1" id="216254471" layer="-1.00" shape="428.14,719.79 400.08,773.66 425.58,786.86 453.64,733.00 428.14,719.79" type="parking"/>
   <poly color="184,184,179" fill="1" id="216254473" layer="-1.00" shape="322.72,751.15 337.64,721.65 344.00,724.87 361.02,691.22 284.75,652.64 252.81,715.79 322.72,751.15" type="parking"/>
   <poly color="red" fill="1" id="218287183" layer="-1.00" shape="213.30,230.18 203.26,219.76 212.28,211.08 222.31,221.51 213.30,230.18" type="building"/>
   <poly color="red" fill="1" id="218287184" layer="-1.00" shape="75.84,388.13 80.42,382.07 93.11,391.64 88.53,397.69 75.84,388.13" type="building"/>
   <poly color="red" fill="1" id="218287185" layer="-1.00" shape="167.39,216.62 161.91,210.86 154.46,217.91 159.96,223.67 167.39,216.62" type="building"/>
   <poly color="red" fill="1" id="218287186" layer="-1.00" shape="258.79,170.05 261.70,177.21 266.36,184.99 272.29,191.92 279.27,197.82 264.80,208.38 256.78,200.02 238.11,180.60 238.37,180.33 238.88,180.85 239.70,180.02 247.72,173.65 258.79,170.05" type="building"/>
   <poly color="red" fill="1" id="218287187" layer="-1.00" shape="141.53,423.66 144.44,418.45 156.58,425.07 152.42,433.04 147.07,430.29 148.51,427.50 141.53,423.66" type="building"/>
   <poly color="237,199,199" fill="1" id="218287189" layer="-1.00" shape="116.36,371.46 113.52,371.00 108.76,364.46 126.63,351.46 132.58,359.65 116.36,371.46" type="amenity"/>
   <poly color="red" fill="1" id="218287189#1" layer="-1.00" shape="116.36,371.46 113.52,371.00 108.76,364.46 126.63,351.46 132.58,359.65 116.36,371.46" type="building"/>
   <poly color="red" fill="1" id="22560861" layer="-1.00" shape="133.52,358.21 143.79,372.22 121.71,388.34 116.30,380.96 100.22,392.68 93.03,382.88 106.61,372.97 108.95,376.18 133.52,358.21" type="building"/>
   <poly color="237,199,199" fill="1" id="22743840" layer="-1.00" shape="99.53,460.59 106.65,446.82 110.88,449.02 113.34,444.26 114.73,441.59 119.18,443.91 117.80,446.58 120.44,447.96 127.22,434.83 141.01,441.92 124.67,473.56 99.53,460.59" type="amenity"/>
   <poly color="194,194,130" fill="1" id="229251345" layer="-3.00" shape="310.90,151.34 310.81,150.96 310.74,150.53 310.68,150.20 310.65,149.81 310.61,149.42 310.61,149.09 310.60,148.67 310.61,148.29 310.63,147.95 310.68,147.56 310.73,147.17 310.79,146.81 310.87,146.41 310.95,146.04 311.05,145.76 311.18,145.38 311.40,144.82 311.55,144.46 311.91,144.66 312.32,144.89 312.73,145.16 313.00,145.35 313.31,145.61 313.61,145.86 313.87,146.10 314.15,146.37 314.43,146.67 314.64,146.92 314.90,147.22 315.14,147.53 315.34,147.83 315.58,148.17 315.76,148.47 315.93,148.78 316.10,149.12 316.47,149.96 316.87,151.14 317.08,151.99 317.20,152.73 317.24,153.12 317.28,153.52 317.29,153.84 317.29,154.23 317.27,154.63 317.25,154.99 317.21,155.38 317.16,155.76 317.10,156.08 317.01,156.49 316.92,156.89 316.83,157.19 316.72,157.56 316.50,158.11 316.34,158.46 316.00,158.27 315.58,158.01 315.14,157.74 314.89,157.56 314.58,157.31 314.29,157.06 314.04,156.83 313.76,156.55 313.48,156.24 313.25,155.99 313.00,155.68 312.75,155.37 312.57,155.10 312.33,154.75 312.13,154.42 311.96,154.13 311.78,153.79 311.66,153.53 311.46,153.09 311.31,152.67 311.18,152.28 311.02,151.74 310.90,151.34" type="landuse"/>