<?xml version="1.0" encoding="utf-8"?><!-- generated on 10/11/17 17:55:14 by SUMO netconvert Version 0.25.0
<?xml version="1.0" encoding="UTF-8"?>

<configuration xmlns:xsi="http://www.w3.org/2001/XMLSchema-instance" xsi:noNamespaceSchemaLocation="http://sumo.dlr.de/xsd/netconvertConfiguration.xsd">

    <input>
        <type-files value="osmNetconvert.typ.xml"/>
        <osm-files value="K_AirportBP_industrial_800.osm"/>
    </input>

    <output>
        <output-file value="K_AirportBP_industrial_800.net.xml"/>
    </output>

    <projection>
        <proj.utm value="true"/>
    </projection>

    <edge_removal>
        <remove-edges.by-type value="highway.track,highway.unsurfaced,highway.raceway,highway.bridleway,highway.path,highway.footway,highway.pedestrian,highway.cycleway,highway.step,highway.steps,highway.stairs,highway.bus_guideway,highway.ford,railway.rail,railway.tram,railway.light_rail,railway.subway,railway.preserved,railway.narrow_gauge,railway.monorail,railway.funicular"/>
    </edge_removal>

</configuration>
-->
<net version="0.25">
   <location convBoundary="0.00,0.00,938.29,849.07" netOffset="-362991.62,-5641374.19" origBoundary="7.051209,50.907904,7.064368,50.915586" projParameter="+proj=utm +zone=32 +ellps=WGS84 +datum=WGS84 +units=m +no_defs"/>
   <type allow="pedestrian" id="highway.bridleway" numLanes="1" oneway="1" priority="1" speed="2.78" width="2.00"/>
   <type allow="bus" id="highway.bus_guideway" numLanes="1" oneway="1" priority="1" speed="8.33"/>
   <type allow="bicycle" id="highway.cycleway" numLanes="1" oneway="0" priority="1" speed="5.56" width="1.00"/>
   <type allow="pedestrian" id="highway.footway" numLanes="1" oneway="1" priority="1" speed="8.33" width="2.00"/>
   <type allow="army" id="highway.ford" numLanes="1" oneway="0" priority="1" speed="2.78"/>
   <type disallow="tram rail_urban rail rail_electric ship" id="highway.living_street" numLanes="1" oneway="0" priority="3" speed="2.78"/>
   <type allow="private emergency authority army vip passenger hov taxi bus coach delivery truck trailer motorcycle evehicle custom1 custom2" id="highway.motorway" numLanes="2" oneway="1" priority="13" speed="44.44"/>
   <type allow="private emergency authority army vip passenger hov taxi bus coach delivery truck trailer motorcycle evehicle custom1 custom2" id="highway.motorway_link" numLanes="1" oneway="1" priority="12" speed="22.22"/>
   <type allow="bicycle pedestrian" id="highway.path" numLanes="1" oneway="1" priority="1" speed="2.78" width="2.00"/>
   <type allow="pedestrian" id="highway.pedestrian" numLanes="1" oneway="1" priority="1" speed="8.33" width="2.00"/>
   <type disallow="tram rail_urban rail rail_electric ship" id="highway.primary" numLanes="2" oneway="0" priority="9" speed="27.78"/>
   <type disallow="tram rail_urban rail rail_electric ship" id="highway.primary_link" numLanes="1" oneway="0" priority="8" speed="22.22"/>
   <type allow="vip" id="highway.raceway" numLanes="2" oneway="0" priority="14" speed="83.33"/>
   <type disallow="tram rail_urban rail rail_electric ship" id="highway.residential" numLanes="1" oneway="0" priority="4" speed="13.89"/>
   <type disallow="tram rail_urban rail rail_electric ship" id="highway.secondary" numLanes="2" oneway="0" priority="7" speed="27.78"/>
   <type disallow="tram rail_urban rail rail_electric ship" id="highway.secondary_link" numLanes="1" oneway="0" priority="6" speed="22.22"/>
   <type allow="delivery bicycle pedestrian" id="highway.service" numLanes="1" oneway="0" priority="2" speed="5.56"/>
   <type disallow="tram rail_urban rail rail_electric ship" id="highway.services" numLanes="1" oneway="0" priority="1" speed="8.33"/>
   <type allow="pedestrian" id="highway.stairs" numLanes="1" oneway="1" priority="1" speed="1.39" width="2.00"/>
   <type allow="pedestrian" id="highway.step" numLanes="1" oneway="1" priority="1" speed="1.39" width="2.00"/>
   <type allow="pedestrian" id="highway.steps" numLanes="1" oneway="1" priority="1" speed="1.39" width="2.00"/>
   <type disallow="tram rail_urban rail rail_electric ship" id="highway.tertiary" numLanes="1" oneway="0" priority="6" speed="22.22"/>
   <type disallow="tram rail_urban rail rail_electric ship" id="highway.tertiary_link" numLanes="1" oneway="0" priority="5" speed="22.22"/>
   <type disallow="tram rail_urban rail rail_electric ship" id="highway.track" numLanes="1" oneway="0" priority="1" speed="5.56"/>
   <type disallow="tram rail_urban rail rail_electric bicycle pedestrian ship" id="highway.trunk" numLanes="2" oneway="0" priority="11" speed="27.78"/>
   <type disallow="tram rail_urban rail rail_electric bicycle pedestrian ship" id="highway.trunk_link" numLanes="1" oneway="0" priority="10" speed="22.22"/>
   <type disallow="tram rail_urban rail rail_electric ship" id="highway.unclassified" numLanes="1" oneway="0" priority="5" speed="13.89"/>
   <type disallow="tram rail_urban rail rail_electric ship" id="highway.unsurfaced" numLanes="1" oneway="0" priority="1" speed="8.33"/>
   <type allow="rail_urban" id="railway.light_rail" numLanes="1" oneway="1" priority="15" speed="27.78"/>
   <type allow="rail" id="railway.preserved" numLanes="1" oneway="1" priority="15" speed="27.78"/>
   <type allow="rail rail_electric" id="railway.rail" numLanes="1" oneway="1" priority="15" speed="83.33"/>
   <type allow="rail_urban" id="railway.subway" numLanes="1" oneway="1" priority="15" speed="27.78"/>
   <type allow="tram" id="railway.tram" numLanes="1" oneway="1" priority="15" speed="13.89"/>
   <edge function="internal" id=":1300020534_0">
      <lane disallow="tram rail_urban rail rail_electric ship" id=":1300020534_0_0" index="0" length="9.61" shape="902.18,137.58 900.81,147.08" speed="13.89"/>
   </edge>
   <edge function="internal" id=":1300020534_1">
      <lane allow="delivery bicycle pedestrian" id=":1300020534_1_0" index="0" length="9.61" shape="902.18,137.58 900.81,147.08" speed="9.73"/>
   </edge>
   <edge function="internal" id=":1300020534_2">
      <lane allow="delivery bicycle pedestrian" id=":1300020534_2_0" index="0" length="4.97" shape="902.18,137.58 901.42,140.09 899.91,141.88" speed="9.73"/>
   </edge>
   <edge function="internal" id=":1300020534_3">
      <lane disallow="tram rail_urban rail rail_electric ship" id=":1300020534_3_0" index="0" length="2.41" shape="902.18,137.58 901.20,138.69 900.32,138.98" speed="13.89"/>
   </edge>
   <edge function="internal" id=":1300020534_16">
      <lane id=":1300020534_16_0" index="0" length="5.46" shape="899.91,141.88 897.68,142.93 894.70,143.26" speed="9.73"/>
   </edge>
   <edge function="internal" id=":1300020534_17">
      <lane id=":1300020534_17_0" index="0" length="2.41" shape="900.32,138.98 899.56,138.46 898.92,137.12" speed="13.89"/>
   </edge>
   <edge function="internal" id=":1300020534_4">
      <lane disallow="tram rail_urban rail rail_electric ship" id=":1300020534_4_0" index="0" length="5.58" shape="894.75,139.96 896.42,139.80 897.67,139.27 898.50,138.38 898.92,137.12" speed="9.73"/>
   </edge>
   <edge function="internal" id=":1300020534_5">
      <lane disallow="tram rail_urban rail rail_electric ship" id=":1300020534_5_0" index="0" length="11.03" shape="894.75,139.96 897.79,140.44 899.82,141.78 900.82,144.00 900.81,147.08" speed="9.73"/>
   </edge>
   <edge function="internal" id=":1300020534_6">
      <lane allow="delivery bicycle pedestrian" id=":1300020534_6_0" index="0" length="11.03" shape="894.75,139.96 897.79,140.44 899.82,141.78 900.82,144.00 900.81,147.08" speed="5.56"/>
   </edge>
   <edge function="internal" id=":1300020534_7">
      <lane allow="delivery bicycle pedestrian" id=":1300020534_7_0" index="0" length="4.82" shape="894.75,139.96 895.97,140.80 896.38,141.63 895.95,142.45 894.70,143.26" speed="5.56"/>
   </edge>
   <edge function="internal" id=":1300020534_8">
      <lane allow="delivery bicycle pedestrian" id=":1300020534_8_0" index="0" length="5.17" shape="897.54,146.60 897.55,145.15 897.08,144.11 896.13,143.48 894.70,143.26" speed="9.73"/>
   </edge>
   <edge function="internal" id=":1300020534_9">
      <lane disallow="tram rail_urban rail rail_electric ship" id=":1300020534_9_0" index="0" length="9.57" shape="897.54,146.60 898.92,137.12" speed="13.89"/>
   </edge>
   <edge function="internal" id=":1300020534_10">
      <lane allow="delivery bicycle pedestrian" id=":1300020534_10_0" index="0" length="3.30" shape="897.54,146.60 900.81,147.08" speed="9.73"/>
   </edge>
   <edge function="internal" id=":1300020534_11">
      <lane disallow="tram rail_urban rail rail_electric ship" id=":1300020534_11_0" index="0" length="2.41" shape="897.54,146.60 898.54,145.49 899.42,145.21" speed="13.89"/>
   </edge>
   <edge function="internal" id=":1300020534_18">
      <lane id=":1300020534_18_0" index="0" length="2.41" shape="899.42,145.21 900.18,145.74 900.81,147.08" speed="13.89"/>
   </edge>
   <edge function="internal" id=":1300020534_12">
      <lane allow="delivery bicycle pedestrian" id=":1300020534_12_0" index="0" length="5.17" shape="897.54,146.60 897.55,145.15 897.08,144.11 896.13,143.48 894.70,143.26" speed="5.56"/>
   </edge>
   <edge function="internal" id=":1300020534_13">
      <lane disallow="tram rail_urban rail rail_electric ship" id=":1300020534_13_0" index="0" length="9.57" shape="897.54,146.60 898.92,137.12" speed="9.73"/>
   </edge>
   <edge function="internal" id=":1300020534_14">
      <lane disallow="tram rail_urban rail rail_electric ship" id=":1300020534_14_0" index="0" length="3.30" shape="897.54,146.60 900.81,147.08" speed="9.73"/>
   </edge>
   <edge function="internal" id=":1300020534_15">
      <lane allow="delivery bicycle pedestrian" id=":1300020534_15_0" index="0" length="4.82" shape="897.54,146.60 898.54,145.49 899.42,145.21 900.17,145.74 900.81,147.08" speed="5.56"/>
   </edge>
   <edge function="internal" id=":1446919734_0">
      <lane disallow="tram rail_urban rail rail_electric ship" id=":1446919734_0_0" index="0" length="0.60" shape="395.06,570.07 394.55,569.76" speed="13.89"/>
   </edge>
   <edge function="internal" id=":1446919734_1">
      <lane disallow="tram rail_urban rail rail_electric ship" id=":1446919734_1_0" index="0" length="2.43" shape="395.06,570.07 394.31,568.77 394.30,567.84" speed="13.89"/>
   </edge>
   <edge function="internal" id=":1446919734_4">
      <lane id=":1446919734_4_0" index="0" length="2.43" shape="394.30,567.84 395.04,567.27 396.53,567.08" speed="13.89"/>
   </edge>
   <edge function="internal" id=":1446919734_2">
      <lane disallow="tram rail_urban rail rail_electric ship" id=":1446919734_2_0" index="0" length="0.16" shape="396.39,566.99 396.53,567.08" speed="13.89"/>
   </edge>
   <edge function="internal" id=":1446919734_3">
      <lane disallow="tram rail_urban rail rail_electric ship" id=":1446919734_3_0" index="0" length="2.43" shape="396.39,566.99 396.97,568.37 396.85,569.29" speed="13.89"/>
   </edge>
   <edge function="internal" id=":1446919734_5">
      <lane id=":1446919734_5_0" index="0" length="2.43" shape="396.85,569.29 396.05,569.76 394.55,569.76" speed="13.89"/>
   </edge>
   <edge function="internal" id=":1446919743_0">
      <lane disallow="tram rail_urban rail rail_electric ship" id=":1446919743_0_0" index="0" length="7.38" shape="339.24,524.73 342.73,531.23" speed="13.89"/>
   </edge>
   <edge function="internal" id=":1446919743_1">
      <lane disallow="tram rail_urban rail rail_electric ship" id=":1446919743_1_0" index="0" length="7.75" shape="336.07,527.27 342.73,531.23" speed="13.89"/>
   </edge>
   <edge function="internal" id=":1446919752_0">
      <lane disallow="tram rail_urban rail rail_electric ship" id=":1446919752_0_0" index="0" length="0.10" shape="306.18,525.24 306.18,525.24" speed="13.89"/>
   </edge>
   <edge function="internal" id=":1446919754_0">
      <lane disallow="tram rail_urban rail rail_electric ship" id=":1446919754_0_0" index="0" length="5.54" shape="323.42,533.50 322.11,533.09 320.92,533.27 319.85,534.03 318.89,535.37" speed="13.89"/>
   </edge>
   <edge function="internal" id=":1446919754_1">
      <lane disallow="tram rail_urban rail rail_electric ship" id=":1446919754_1_0" index="0" length="16.21" shape="323.42,533.50 319.90,531.73 316.16,529.90 312.40,528.11 308.83,526.45" speed="13.89"/>
   </edge>
   <edge function="internal" id=":1446919754_2">
      <lane disallow="tram rail_urban rail rail_electric ship" id=":1446919754_2_0" index="0" length="10.82" shape="323.42,533.50 319.73,531.41 317.29,529.53 316.08,527.87 316.12,526.43" speed="13.89"/>
   </edge>
   <edge function="internal" id=":1446919754_3">
      <lane disallow="tram rail_urban rail rail_electric ship" id=":1446919754_3_0" index="0" length="6.73" shape="322.04,529.34 318.89,535.37" speed="13.89"/>
      <lane disallow="tram rail_urban rail rail_electric ship" id=":1446919754_3_1" index="1" length="6.73" shape="319.08,527.88 316.00,533.79" speed="13.89"/>
   </edge>
   <edge function="internal" id=":1446919754_5">
      <lane disallow="tram rail_urban rail rail_electric ship" id=":1446919754_5_0" index="0" length="2.73" shape="319.08,527.88 317.95,528.79 316.67,528.83" speed="13.89"/>
   </edge>
   <edge function="internal" id=":1446919754_6">
      <lane disallow="tram rail_urban rail rail_electric ship" id=":1446919754_6_0" index="0" length="2.41" shape="319.08,527.88 317.79,528.63 316.87,528.64" speed="13.89"/>
   </edge>
   <edge function="internal" id=":1446919754_11">
      <lane id=":1446919754_11_0" index="0" length="8.26" shape="316.67,528.83 315.86,528.85 312.82,528.07 308.83,526.45" speed="13.89"/>
   </edge>
   <edge function="internal" id=":1446919754_12">
      <lane id=":1446919754_12_0" index="0" length="2.41" shape="316.87,528.64 316.31,527.90 316.12,526.43" speed="13.89"/>
   </edge>
   <edge function="internal" id=":1446919754_7">
      <lane disallow="tram rail_urban rail rail_electric ship" id=":1446919754_7_0" index="0" length="5.09" shape="310.21,530.61 310.70,529.29 310.64,528.16 310.01,527.21 308.83,526.45" speed="13.89"/>
   </edge>
   <edge function="internal" id=":1446919754_8">
      <lane disallow="tram rail_urban rail rail_electric ship" id=":1446919754_8_0" index="0" length="6.44" shape="310.21,530.61 313.15,524.97" speed="13.89"/>
      <lane disallow="tram rail_urban rail rail_electric ship" id=":1446919754_8_1" index="1" length="6.44" shape="313.10,532.20 316.12,526.43" speed="13.89"/>
   </edge>
   <edge function="internal" id=":1446919754_10">
      <lane disallow="tram rail_urban rail rail_electric ship" id=":1446919754_10_0" index="0" length="2.41" shape="313.10,532.20 314.42,531.51 315.34,531.55" speed="13.89"/>
   </edge>
   <edge function="internal" id=":1446919754_13">
      <lane id=":1446919754_13_0" index="0" length="2.41" shape="315.34,531.55 315.87,532.30 316.00,533.79" speed="13.89"/>
   </edge>
   <edge function="internal" id=":1446919759_0">
      <lane disallow="tram rail_urban rail rail_electric ship" id=":1446919759_0_0" index="0" length="0.46" shape="337.54,519.19 337.61,519.64" speed="13.89"/>
   </edge>
   <edge function="internal" id=":1446919761_0">
      <lane disallow="tram rail_urban rail rail_electric ship" id=":1446919761_0_0" index="0" length="47.25" shape="355.13,463.20 350.45,473.09 344.49,486.51 339.40,499.19 337.28,506.86" speed="13.89"/>
   </edge>
   <edge function="internal" id=":1446919761_1">
      <lane disallow="tram rail_urban rail rail_electric ship" id=":1446919761_1_0" index="0" length="47.84" shape="355.13,463.20 350.51,472.39 344.35,484.56 338.19,496.72 333.54,505.90" speed="13.89"/>
      <lane disallow="tram rail_urban rail rail_electric ship" id=":1446919761_1_1" index="1" length="47.84" shape="352.18,461.73 347.56,470.92 341.40,483.08 335.24,495.24 330.60,504.42" speed="13.89"/>
   </edge>
   <edge function="internal" id=":1446919761_3">
      <lane disallow="tram rail_urban rail rail_electric ship" id=":1446919761_3_0" index="0" length="2.41" shape="352.18,461.73 350.89,462.47 349.97,462.47" speed="13.89"/>
   </edge>
   <edge function="internal" id=":1446919761_8">
      <lane id=":1446919761_8_0" index="0" length="2.41" shape="349.97,462.47 349.41,461.73 349.22,460.26" speed="13.89"/>
   </edge>
   <edge function="internal" id=":1446919761_4">
      <lane disallow="tram rail_urban rail rail_electric ship" id=":1446919761_4_0" index="0" length="47.81" shape="324.71,501.45 329.35,492.27 335.50,480.12 341.65,467.97 346.27,458.78" speed="13.89"/>
      <lane disallow="tram rail_urban rail rail_electric ship" id=":1446919761_4_1" index="1" length="47.81" shape="327.65,502.93 332.30,493.76 338.45,481.60 344.60,469.44 349.22,460.26" speed="13.89"/>
   </edge>
   <edge function="internal" id=":1446919761_6">
      <lane disallow="tram rail_urban rail rail_electric ship" id=":1446919761_6_0" index="0" length="9.54" shape="327.65,502.93 331.69,496.36 333.31,495.52" speed="13.89"/>
   </edge>
   <edge function="internal" id=":1446919761_7">
      <lane disallow="tram rail_urban rail rail_electric ship" id=":1446919761_7_0" index="0" length="2.41" shape="327.65,502.93 328.95,502.20 329.87,502.20" speed="13.89"/>
   </edge>
   <edge function="internal" id=":1446919761_9">
      <lane id=":1446919761_9_0" index="0" length="14.04" shape="333.31,495.52 334.64,494.82 336.51,498.32 337.28,506.86" speed="13.89"/>
   </edge>
   <edge function="internal" id=":1446919761_10">
      <lane id=":1446919761_10_0" index="0" length="2.41" shape="329.87,502.20 330.42,502.94 330.60,504.42" speed="13.89"/>
   </edge>
   <edge function="internal" id=":1458613934_0">
      <lane disallow="tram rail_urban rail rail_electric ship" id=":1458613934_0_0" index="0" length="0.15" shape="433.18,16.47 433.04,16.43" speed="13.89"/>
   </edge>
   <edge function="internal" id=":1458613934_1">
      <lane disallow="tram rail_urban rail rail_electric ship" id=":1458613934_1_0" index="0" length="2.41" shape="433.18,16.47 432.28,15.28 432.16,14.37" speed="13.89"/>
   </edge>
   <edge function="internal" id=":1458613934_4">
      <lane id=":1458613934_4_0" index="0" length="2.41" shape="432.16,14.37 432.82,13.72 434.26,13.35" speed="13.89"/>
   </edge>
   <edge function="internal" id=":1458613934_2">
      <lane disallow="tram rail_urban rail rail_electric ship" id=":1458613934_2_0" index="0" length="0.45" shape="433.83,13.22 434.26,13.35" speed="13.89"/>
   </edge>
   <edge function="internal" id=":1458613934_3">
      <lane disallow="tram rail_urban rail rail_electric ship" id=":1458613934_3_0" index="0" length="2.41" shape="433.83,13.22 434.83,14.32 435.04,15.22" speed="13.89"/>
   </edge>
   <edge function="internal" id=":1458613934_5">
      <lane id=":1458613934_5_0" index="0" length="2.41" shape="435.04,15.22 434.44,15.92 433.04,16.43" speed="13.89"/>
   </edge>
   <edge function="internal" id=":1458613952_0">
      <lane disallow="tram rail_urban rail rail_electric ship" id=":1458613952_0_0" index="0" length="1.24" shape="282.38,31.09 282.46,29.85" speed="13.89"/>
   </edge>
   <edge function="internal" id=":1458613952_1">
      <lane disallow="tram rail_urban rail rail_electric ship" id=":1458613952_1_0" index="0" length="2.41" shape="282.38,31.09 283.12,29.80 283.92,29.34" speed="13.89"/>
   </edge>
   <edge function="internal" id=":1458613952_4">
      <lane id=":1458613952_4_0" index="0" length="2.41" shape="283.92,29.34 284.77,29.70 285.67,30.88" speed="13.89"/>
   </edge>
   <edge function="internal" id=":1458613952_2">
      <lane disallow="tram rail_urban rail rail_electric ship" id=":1458613952_2_0" index="0" length="0.40" shape="285.69,30.48 285.67,30.88" speed="13.89"/>
   </edge>
   <edge function="internal" id=":1458613952_3">
      <lane disallow="tram rail_urban rail rail_electric ship" id=":1458613952_3_0" index="0" length="2.41" shape="285.69,30.48 284.65,31.54 283.76,31.78" speed="13.89"/>
   </edge>
   <edge function="internal" id=":1458613952_5">
      <lane id=":1458613952_5_0" index="0" length="2.41" shape="283.76,31.78 283.03,31.22 282.46,29.85" speed="13.89"/>
   </edge>
   <edge function="internal" id=":1458613954_0">
      <lane allow="delivery bicycle pedestrian" id=":1458613954_0_0" index="0" length="4.82" shape="351.15,19.24 351.88,17.94 352.67,17.47 353.52,17.81 354.44,18.98" speed="5.56"/>
   </edge>
   <edge function="internal" id=":1458613956_0">
      <lane disallow="tram rail_urban rail rail_electric ship" id=":1458613956_0_0" index="0" length="0.29" shape="462.48,28.76 462.21,28.63" speed="13.89"/>
   </edge>
   <edge function="internal" id=":1458613956_1">
      <lane disallow="tram rail_urban rail rail_electric ship" id=":1458613956_1_0" index="0" length="2.41" shape="462.48,28.76 461.73,27.47 461.73,26.55" speed="13.89"/>
   </edge>
   <edge function="internal" id=":1458613956_4">
      <lane id=":1458613956_4_0" index="0" length="2.41" shape="461.73,26.55 462.46,25.99 463.93,25.80" speed="13.89"/>
   </edge>
   <edge function="internal" id=":1458613956_2">
      <lane disallow="tram rail_urban rail rail_electric ship" id=":1458613956_2_0" index="0" length="0.39" shape="463.58,25.62 463.93,25.80" speed="13.89"/>
   </edge>
   <edge function="internal" id=":1458613956_3">
      <lane disallow="tram rail_urban rail rail_electric ship" id=":1458613956_3_0" index="0" length="2.41" shape="463.58,25.62 464.37,26.89 464.40,27.81" speed="13.89"/>
   </edge>
   <edge function="internal" id=":1458613956_5">
      <lane id=":1458613956_5_0" index="0" length="2.41" shape="464.40,27.81 463.68,28.39 462.21,28.63" speed="13.89"/>
   </edge>
   <edge function="internal" id=":1458613961_0">
      <lane allow="delivery bicycle pedestrian" id=":1458613961_0_0" index="0" length="4.82" shape="425.52,36.01 424.65,34.80 424.55,33.88 425.23,33.26 426.67,32.92" speed="5.56"/>
   </edge>
   <edge function="internal" id=":1458613973_0">
      <lane disallow="tram rail_urban rail rail_electric ship" id=":1458613973_0_0" index="0" length="5.64" shape="509.42,47.89 515.02,47.26" speed="13.89"/>
   </edge>
   <edge function="internal" id=":1458613973_1">
      <lane disallow="tram rail_urban rail rail_electric ship" id=":1458613973_1_0" index="0" length="5.01" shape="509.42,47.89 513.71,50.46" speed="13.89"/>
   </edge>
   <edge function="internal" id=":1458614016_0">
      <lane allow="private emergency authority army vip passenger hov taxi bus coach delivery truck trailer motorcycle evehicle custom1 custom2" id=":1458614016_0_0" index="0" length="2.80" shape="698.72,66.04 701.49,66.47" speed="22.22"/>
   </edge>
   <edge function="internal" id=":1458614027_0">
      <lane allow="private emergency authority army vip passenger hov taxi bus coach delivery truck trailer motorcycle evehicle custom1 custom2" id=":1458614027_0_0" index="0" length="1.32" shape="579.57,72.19 580.64,72.96" speed="18.05"/>
   </edge>
   <edge function="internal" id=":1458614027_1">
      <lane allow="private emergency authority army vip passenger hov taxi bus coach delivery truck trailer motorcycle evehicle custom1 custom2" id=":1458614027_1_0" index="0" length="3.35" shape="576.46,75.27 579.70,76.12" speed="22.22"/>
   </edge>
   <edge function="internal" id=":1458614034_0">
      <lane allow="private emergency authority army vip passenger hov taxi bus coach delivery truck trailer motorcycle evehicle custom1 custom2" id=":1458614034_0_0" index="0" length="3.33" shape="688.58,80.02 687.61,83.95" speed="22.22"/>
      <lane allow="private emergency authority army vip passenger hov taxi bus coach delivery truck trailer motorcycle evehicle custom1 custom2" id=":1458614034_0_1" index="1" length="3.33" shape="688.58,80.02 686.60,80.80" speed="22.22"/>
      <lane allow="private emergency authority army vip passenger hov taxi bus coach delivery truck trailer motorcycle evehicle custom1 custom2" id=":1458614034_0_2" index="2" length="3.33" shape="688.58,80.02 685.60,77.66" speed="22.22"/>
   </edge>
   <edge function="internal" id=":1458614040_0">
      <lane allow="private emergency authority army vip passenger hov taxi bus coach delivery truck trailer motorcycle evehicle custom1 custom2" id=":1458614040_0_0" index="0" length="14.44" shape="582.18,90.02 577.70,88.99 574.35,88.17 571.40,87.44 568.13,86.69" speed="22.22"/>
   </edge>
   <edge function="internal" id=":1458614040_1">
      <lane allow="private emergency authority army vip passenger hov taxi bus coach delivery truck trailer motorcycle evehicle custom1 custom2" id=":1458614040_1_0" index="0" length="9.18" shape="578.40,82.42 569.25,81.65" speed="22.22"/>
   </edge>
   <edge function="internal" id=":1458614044_0">
      <lane allow="delivery bicycle pedestrian" id=":1458614044_0_0" index="0" length="4.62" shape="483.37,92.84 482.40,92.10 481.37,91.75 480.28,91.77 479.13,92.17" speed="5.56"/>
   </edge>
   <edge function="internal" id=":1458614044_1">
      <lane allow="delivery bicycle pedestrian" id=":1458614044_1_0" index="0" length="8.25" shape="483.37,92.84 481.97,91.19 480.96,89.42 480.36,87.51 480.16,85.48" speed="5.56"/>
   </edge>
   <edge function="internal" id=":1458614044_2">
      <lane allow="delivery bicycle pedestrian" id=":1458614044_2_0" index="0" length="4.82" shape="483.37,92.84 483.07,91.38 483.35,90.51 484.23,90.21 485.69,90.49" speed="5.56"/>
   </edge>
   <edge function="internal" id=":1458614044_3">
      <lane allow="delivery bicycle pedestrian" id=":1458614044_3_0" index="0" length="5.63" shape="483.46,85.47 483.59,86.84 484.01,88.14 484.71,89.35 485.69,90.49" speed="5.56"/>
   </edge>
   <edge function="internal" id=":1458614044_4">
      <lane allow="delivery bicycle pedestrian" id=":1458614044_4_0" index="0" length="8.43" shape="483.46,85.47 483.18,87.59 482.37,89.41 481.02,90.94 479.13,92.17" speed="5.56"/>
   </edge>
   <edge function="internal" id=":1458614044_5">
      <lane allow="delivery bicycle pedestrian" id=":1458614044_5_0" index="0" length="4.82" shape="483.46,85.47 482.63,86.71 481.81,87.12 480.98,86.71 480.16,85.48" speed="5.56"/>
   </edge>
   <edge function="internal" id=":1458614044_6">
      <lane allow="delivery bicycle pedestrian" id=":1458614044_6_0" index="0" length="4.76" shape="477.65,89.22 478.75,88.51 479.53,87.66 480.00,86.64 480.16,85.48" speed="5.56"/>
   </edge>
   <edge function="internal" id=":1458614044_7">
      <lane allow="delivery bicycle pedestrian" id=":1458614044_7_0" index="0" length="8.75" shape="477.65,89.22 479.83,88.46 481.90,88.42 483.85,89.09 485.69,90.49" speed="5.56"/>
   </edge>
   <edge function="internal" id=":1458614044_8">
      <lane allow="delivery bicycle pedestrian" id=":1458614044_8_0" index="0" length="4.82" shape="477.65,89.22 479.13,89.40 479.86,89.96 479.86,90.88 479.13,92.17" speed="5.56"/>
   </edge>
   <edge function="internal" id=":1458614053_0">
      <lane disallow="tram rail_urban rail rail_electric ship" id=":1458614053_0_0" index="0" length="4.82" shape="-0.57,104.12 -1.45,102.92 -1.55,102.00 -0.88,101.37 0.57,101.03" speed="13.89"/>
   </edge>
   <edge function="internal" id=":1458614073_0">
      <lane disallow="tram rail_urban rail rail_electric ship" id=":1458614073_0_0" index="0" length="6.62" shape="292.13,109.84 285.57,110.70" speed="13.89"/>
   </edge>
   <edge function="internal" id=":1458614073_1">
      <lane disallow="tram rail_urban rail rail_electric ship" id=":1458614073_1_0" index="0" length="4.01" shape="292.13,109.84 289.01,109.32 288.31,108.84" speed="13.89"/>
   </edge>
   <edge function="internal" id=":1458614073_2">
      <lane disallow="tram rail_urban rail rail_electric ship" id=":1458614073_2_0" index="0" length="2.10" shape="292.13,109.84 290.91,108.99 290.65,108.43" speed="13.89"/>
   </edge>
   <edge function="internal" id=":1458614073_9">
      <lane id=":1458614073_9_0" index="0" length="7.24" shape="288.31,108.84 286.98,107.92 286.05,105.64 286.22,102.48" speed="13.89"/>
   </edge>
   <edge function="internal" id=":1458614073_10">
      <lane id=":1458614073_10_0" index="0" length="2.72" shape="290.65,108.43 290.51,108.15 290.95,107.34 292.20,106.54" speed="13.89"/>
   </edge>
   <edge function="internal" id=":1458614073_3">
      <lane disallow="tram rail_urban rail rail_electric ship" id=":1458614073_3_0" index="0" length="5.22" shape="289.46,103.12 289.38,104.59 289.81,105.65 290.75,106.30 292.20,106.54" speed="13.89"/>
   </edge>
   <edge function="internal" id=":1458614073_4">
      <lane disallow="tram rail_urban rail rail_electric ship" id=":1458614073_4_0" index="0" length="8.73" shape="289.46,103.12 288.77,105.85 287.89,108.02 286.82,109.63 285.57,110.70" speed="13.89"/>
   </edge>
   <edge function="internal" id=":1458614073_5">
      <lane disallow="tram rail_urban rail rail_electric ship" id=":1458614073_5_0" index="0" length="4.82" shape="289.46,103.12 288.41,104.18 287.52,104.42 286.79,103.85 286.22,102.48" speed="13.89"/>
   </edge>
   <edge function="internal" id=":1458614073_6">
      <lane disallow="tram rail_urban rail rail_electric ship" id=":1458614073_6_0" index="0" length="6.30" shape="283.57,108.04 284.39,107.31 285.11,106.14 285.72,104.53 286.22,102.48" speed="13.89"/>
   </edge>
   <edge function="internal" id=":1458614073_7">
      <lane disallow="tram rail_urban rail rail_electric ship" id=":1458614073_7_0" index="0" length="8.76" shape="283.57,108.04 292.20,106.54" speed="13.89"/>
   </edge>
   <edge function="internal" id=":1458614073_8">
      <lane disallow="tram rail_urban rail rail_electric ship" id=":1458614073_8_0" index="0" length="3.09" shape="283.57,108.04 285.07,107.96 285.90,108.37 286.02,109.02" speed="13.89"/>
   </edge>
   <edge function="internal" id=":1458614073_11">
      <lane id=":1458614073_11_0" index="0" length="1.76" shape="286.02,109.02 286.06,109.28 285.57,110.70" speed="13.89"/>
   </edge>
   <edge function="internal" id=":1458614080_0">
      <lane allow="delivery bicycle pedestrian" id=":1458614080_0_0" index="0" length="4.96" shape="358.96,108.21 358.42,106.97 357.62,106.18 356.54,105.85 355.19,105.98" speed="5.56"/>
   </edge>