<?xml version="1.0" encoding="utf-8"?><!-- generated on 10/11/17 17:55:30 by SUMO netconvert Version 0.25.0
<?xml version="1.0" encoding="UTF-8"?>

<configuration xmlns:xsi="http://www.w3.org/2001/XMLSchema-instance" xsi:noNamespaceSchemaLocation="http://sumo.dlr.de/xsd/netconvertConfiguration.xsd">

    <input>
        <type-files value="osmNetconvert.typ.xml"/>
        <osm-files value="K_Altstadt_historical_800.osm"/>
    </input>

    <output>
        <output-file value="K_Altstadt_historical_800.net.xml"/>
    </output>

    <projection>
        <proj.utm value="true"/>
    </projection>

    <edge_removal>
        <remove-edges.by-type value="highway.track,highway.unsurfaced,highway.raceway,highway.bridleway,highway.path,highway.footway,highway.pedestrian,highway.cycleway,highway.step,highway.steps,highway.stairs,highway.bus_guideway,highway.ford,railway.rail,railway.tram,railway.light_rail,railway.subway,railway.preserved,railway.narrow_gauge,railway.monorail,railway.funicular"/>
    </edge_removal>

</configuration>
-->
<net version="0.25">
   <location convBoundary="0.00,0.00,806.08,815.51" netOffset="-356081.64,-5644534.55" origBoundary="6.951530,50.934601,6.963489,50.941899" projParameter="+proj=utm +zone=32 +ellps=WGS84 +datum=WGS84 +units=m +no_defs"/>
   <type allow="pedestrian" id="highway.bridleway" numLanes="1" oneway="1" priority="1" speed="2.78" width="2.00"/>
   <type allow="bus" id="highway.bus_guideway" numLanes="1" oneway="1" priority="1" speed="8.33"/>
   <type allow="bicycle" id="highway.cycleway" numLanes="1" oneway="0" priority="1" speed="5.56" width="1.00"/>
   <type allow="pedestrian" id="highway.footway" numLanes="1" oneway="1" priority="1" speed="8.33" width="2.00"/>
   <type allow="army" id="highway.ford" numLanes="1" oneway="0" priority="1" speed="2.78"/>
   <type disallow="tram rail_urban rail rail_electric ship" id="highway.living_street" numLanes="1" oneway="0" priority="3" speed="2.78"/>
   <type allow="private emergency authority army vip passenger hov taxi bus coach delivery truck trailer motorcycle evehicle custom1 custom2" id="highway.motorway" numLanes="2" oneway="1" priority="13" speed="44.44"/>
   <type allow="private emergency authority army vip passenger hov taxi bus coach delivery truck trailer motorcycle evehicle custom1 custom2" id="highway.motorway_link" numLanes="1" oneway="1" priority="12" speed="22.22"/>
   <type allow="bicycle pedestrian" id="highway.path" numLanes="1" oneway="1" priority="1" speed="2.78" width="2.00"/>
   <type allow="pedestrian" id="highway.pedestrian" numLanes="1" oneway="1" priority="1" speed="8.33" width="2.00"/>
   <type disallow="tram rail_urban rail rail_electric ship" id="highway.primary" numLanes="2" oneway="0" priority="9" speed="27.78"/>
   <type disallow="tram rail_urban rail rail_electric ship" id="highway.primary_link" numLanes="1" oneway="0" priority="8" speed="22.22"/>
   <type allow="vip" id="highway.raceway" numLanes="2" oneway="0" priority="14" speed="83.33"/>
   <type disallow="tram rail_urban rail rail_electric ship" id="highway.residential" numLanes="1" oneway="0" priority="4" speed="13.89"/>
   <type disallow="tram rail_urban rail rail_electric ship" id="highway.secondary" numLanes="2" oneway="0" priority="7" speed="27.78"/>
   <type disallow="tram rail_urban rail rail_electric ship" id="highway.secondary_link" numLanes="1" oneway="0" priority="6" speed="22.22"/>
   <type allow="delivery bicycle pedestrian" id="highway.service" numLanes="1" oneway="0" priority="2" speed="5.56"/>
   <type disallow="tram rail_urban rail rail_electric ship" id="highway.services" numLanes="1" oneway="0" priority="1" speed="8.33"/>
   <type allow="pedestrian" id="highway.stairs" numLanes="1" oneway="1" priority="1" speed="1.39" width="2.00"/>
   <type allow="pedestrian" id="highway.step" numLanes="1" oneway="1" priority="1" speed="1.39" width="2.00"/>
   <type allow="pedestrian" id="highway.steps" numLanes="1" oneway="1" priority="1" speed="1.39" width="2.00"/>
   <type disallow="tram rail_urban rail rail_electric ship" id="highway.tertiary" numLanes="1" oneway="0" priority="6" speed="22.22"/>
   <type disallow="tram rail_urban rail rail_electric ship" id="highway.tertiary_link" numLanes="1" oneway="0" priority="5" speed="22.22"/>
   <type disallow="tram rail_urban rail rail_electric ship" id="highway.track" numLanes="1" oneway="0" priority="1" speed="5.56"/>
   <type disallow="tram rail_urban rail rail_electric bicycle pedestrian ship" id="highway.trunk" numLanes="2" oneway="0" priority="11" speed="27.78"/>
   <type disallow="tram rail_urban rail rail_electric bicycle pedestrian ship" id="highway.trunk_link" numLanes="1" oneway="0" priority="10" speed="22.22"/>
   <type disallow="tram rail_urban rail rail_electric ship" id="highway.unclassified" numLanes="1" oneway="0" priority="5" speed="13.89"/>
   <type disallow="tram rail_urban rail rail_electric ship" id="highway.unsurfaced" numLanes="1" oneway="0" priority="1" speed="8.33"/>
   <type allow="rail_urban" id="railway.light_rail" numLanes="1" oneway="1" priority="15" speed="27.78"/>
   <type allow="rail" id="railway.preserved" numLanes="1" oneway="1" priority="15" speed="27.78"/>
   <type allow="rail rail_electric" id="railway.rail" numLanes="1" oneway="1" priority="15" speed="83.33"/>
   <type allow="rail_urban" id="railway.subway" numLanes="1" oneway="1" priority="15" speed="27.78"/>
   <type allow="tram" id="railway.tram" numLanes="1" oneway="1" priority="15" speed="13.89"/>
   <edge function="internal" id=":1026198720_0">
      <lane disallow="tram rail_urban rail rail_electric ship" id=":1026198720_0_0" index="0" length="0.79" shape="278.37,629.21 278.69,628.48" speed="13.89"/>
   </edge>
   <edge function="internal" id=":1039540179_0">
      <lane disallow="tram rail_urban rail rail_electric ship" id=":1039540179_0_0" index="0" length="0.10" shape="636.05,26.15 636.05,26.15" speed="27.78"/>
      <lane disallow="tram rail_urban rail rail_electric ship" id=":1039540179_0_1" index="1" length="0.10" shape="635.57,29.41 635.56,29.41" speed="27.78"/>
   </edge>
   <edge function="internal" id=":1039560882_0">
      <lane allow="delivery bicycle pedestrian" id=":1039560882_0_0" index="0" length="4.82" shape="602.50,8.51 603.45,7.37 604.31,7.04 605.09,7.53 605.78,8.85" speed="5.56"/>
   </edge>
   <edge function="internal" id=":1039560942_0">
      <lane disallow="tram rail_urban rail rail_electric ship" id=":1039560942_0_0" index="0" length="4.88" shape="604.87,17.84 604.92,19.16 605.36,20.18 606.21,20.92 607.45,21.37" speed="16.67"/>
   </edge>
   <edge function="internal" id=":1039560942_1">
      <lane allow="delivery bicycle pedestrian" id=":1039560942_1_0" index="0" length="4.82" shape="604.87,17.84 603.92,18.99 603.06,19.31 602.28,18.82 601.58,17.50" speed="5.56"/>
   </edge>
   <edge function="internal" id=":1039560942_2">
      <lane allow="delivery bicycle pedestrian" id=":1039560942_2_0" index="0" length="5.56" shape="598.04,20.44 599.43,20.66 600.49,20.25 601.21,19.19 601.58,17.50" speed="16.67"/>
   </edge>
   <edge function="internal" id=":1039560942_3">
      <lane disallow="tram rail_urban rail rail_electric ship" id=":1039560942_3_0" index="0" length="9.67" shape="598.04,20.44 606.77,24.60" speed="27.78"/>
   </edge>
   <edge function="internal" id=":1049172327_0">
      <lane disallow="tram rail_urban rail rail_electric ship" id=":1049172327_0_0" index="0" length="0.10" shape="136.42,636.51 136.42,636.51" speed="8.33"/>
   </edge>
   <edge function="internal" id=":1057350438_0">
      <lane disallow="tram rail_urban rail rail_electric ship" id=":1057350438_0_0" index="0" length="0.10" shape="92.71,631.12 92.71,631.12" speed="8.33"/>
   </edge>
   <edge function="internal" id=":1057359988_0">
      <lane disallow="tram rail_urban rail rail_electric ship" id=":1057359988_0_0" index="0" length="0.10" shape="146.14,681.73 146.14,681.73" speed="13.89"/>
   </edge>
   <edge function="internal" id=":1097089734_0">
      <lane allow="delivery bicycle pedestrian" id=":1097089734_0_0" index="0" length="0.10" shape="404.20,341.79 404.21,341.84" speed="5.56"/>
   </edge>
   <edge function="internal" id=":1097089734_1">
      <lane allow="delivery bicycle pedestrian" id=":1097089734_1_0" index="0" length="2.41" shape="404.20,341.79 404.86,340.46 405.63,339.94" speed="5.56"/>
   </edge>
   <edge function="internal" id=":1097089734_4">
      <lane id=":1097089734_4_0" index="0" length="2.41" shape="405.63,339.94 406.50,340.25 407.48,341.37" speed="5.56"/>
   </edge>
   <edge function="internal" id=":1097089734_2">
      <lane allow="delivery bicycle pedestrian" id=":1097089734_2_0" index="0" length="0.10" shape="407.47,341.35 407.48,341.37" speed="5.56"/>
   </edge>
   <edge function="internal" id=":1097089734_3">
      <lane allow="delivery bicycle pedestrian" id=":1097089734_3_0" index="0" length="2.41" shape="407.47,341.35 406.84,342.70 406.08,343.23" speed="5.56"/>
   </edge>
   <edge function="internal" id=":1097089734_5">
      <lane id=":1097089734_5_0" index="0" length="2.41" shape="406.08,343.23 405.21,342.94 404.21,341.84" speed="5.56"/>
   </edge>
   <edge function="internal" id=":1131024117_0">
      <lane disallow="tram rail_urban rail rail_electric ship" id=":1131024117_0_0" index="0" length="0.10" shape="612.82,41.99 612.87,42.07" speed="13.89"/>
      <lane disallow="tram rail_urban rail rail_electric ship" id=":1131024117_0_1" index="1" length="0.10" shape="610.11,43.87 610.06,43.79" speed="13.89"/>
   </edge>
   <edge function="internal" id=":1131024122_0">
      <lane disallow="tram rail_urban rail rail_electric ship" id=":1131024122_0_0" index="0" length="0.10" shape="610.37,21.98 610.37,21.98" speed="27.78"/>
      <lane disallow="tram rail_urban rail rail_electric ship" id=":1131024122_0_1" index="1" length="0.10" shape="609.69,25.21 609.70,25.21" speed="27.78"/>
   </edge>
   <edge function="internal" id=":1141855590_0">
      <lane disallow="tram rail_urban rail rail_electric ship" id=":1141855590_0_0" index="0" length="3.03" shape="439.25,255.60 439.25,252.57" speed="13.89"/>
   </edge>
   <edge function="internal" id=":1141855590_1">
      <lane disallow="tram rail_urban rail rail_electric ship" id=":1141855590_1_0" index="0" length="2.41" shape="439.25,255.60 440.06,254.35 440.88,253.93" speed="13.89"/>
   </edge>
   <edge function="internal" id=":1141855590_5">
      <lane id=":1141855590_5_0" index="0" length="2.41" shape="440.88,253.93 441.71,254.32 442.55,255.55" speed="13.89"/>
   </edge>
   <edge function="internal" id=":1141855590_2">
      <lane disallow="tram rail_urban rail rail_electric ship" id=":1141855590_2_0" index="0" length="3.66" shape="442.55,252.61 445.85,255.50" speed="13.89"/>
      <lane disallow="tram rail_urban rail rail_electric ship" id=":1141855590_2_1" index="1" length="3.66" shape="442.55,252.61 442.55,255.55" speed="13.89"/>
   </edge>
   <edge function="internal" id=":1141855590_4">
      <lane disallow="tram rail_urban rail rail_electric ship" id=":1141855590_4_0" index="0" length="2.41" shape="442.55,252.61 441.71,253.84 440.88,254.24" speed="13.89"/>
   </edge>
   <edge function="internal" id=":1141855590_6">
      <lane id=":1141855590_6_0" index="0" length="2.41" shape="440.88,254.24 440.06,253.82 439.25,252.57" speed="13.89"/>
   </edge>
   <edge function="internal" id=":1141881734_0">
      <lane allow="delivery bicycle pedestrian" id=":1141881734_0_0" index="0" length="4.82" shape="220.02,457.81 220.03,456.32 220.50,455.52 221.42,455.42 222.78,456.01" speed="5.56"/>
   </edge>
   <edge function="internal" id=":1141881742_0">
      <lane allow="delivery bicycle pedestrian" id=":1141881742_0_0" index="0" length="0.10" shape="196.06,468.75 196.06,468.75" speed="5.56"/>
   </edge>
   <edge function="internal" id=":1141881742_1">
      <lane allow="delivery bicycle pedestrian" id=":1141881742_1_0" index="0" length="2.41" shape="196.06,468.75 195.22,469.98 194.39,470.38" speed="5.56"/>
   </edge>
   <edge function="internal" id=":1141881742_4">
      <lane id=":1141881742_4_0" index="0" length="2.41" shape="194.39,470.38 193.57,469.95 192.76,468.70" speed="5.56"/>
   </edge>
   <edge function="internal" id=":1141881742_2">
      <lane allow="delivery bicycle pedestrian" id=":1141881742_2_0" index="0" length="0.10" shape="192.76,468.70 192.76,468.70" speed="5.56"/>
   </edge>
   <edge function="internal" id=":1141881742_3">
      <lane allow="delivery bicycle pedestrian" id=":1141881742_3_0" index="0" length="2.41" shape="192.76,468.70 193.61,467.48 194.44,467.08" speed="5.56"/>
   </edge>
   <edge function="internal" id=":1141881742_5">
      <lane id=":1141881742_5_0" index="0" length="2.41" shape="194.44,467.08 195.26,467.50 196.06,468.75" speed="5.56"/>
   </edge>
   <edge function="internal" id=":1141881743_0">
      <lane allow="delivery bicycle pedestrian" id=":1141881743_0_0" index="0" length="4.98" shape="245.47,464.33 245.16,463.12 244.47,462.26 243.41,461.75 241.97,461.58" speed="9.73"/>
   </edge>
   <edge function="internal" id=":1141881743_1">
      <lane disallow="tram rail_urban rail rail_electric ship" id=":1141881743_1_0" index="0" length="9.38" shape="245.47,464.33 244.57,455.02" speed="13.89"/>
      <lane disallow="tram rail_urban rail rail_electric ship" id=":1141881743_1_1" index="1" length="9.38" shape="248.75,464.04 247.85,454.68" speed="13.89"/>
   </edge>
   <edge function="internal" id=":1141881743_3">
      <lane disallow="tram rail_urban rail rail_electric ship" id=":1141881743_3_0" index="0" length="4.87" shape="241.96,458.28 243.23,458.07 244.09,457.46 244.53,456.44 244.57,455.02" speed="9.73"/>
   </edge>
   <edge function="internal" id=":1141881743_4">
      <lane allow="delivery bicycle pedestrian" id=":1141881743_4_0" index="0" length="4.82" shape="241.96,458.28 243.20,459.11 243.61,459.93 243.20,460.76 241.97,461.58" speed="5.56"/>
   </edge>
   <edge function="internal" id=":1141881744_0">
      <lane allow="delivery bicycle pedestrian" id=":1141881744_0_0" index="0" length="4.82" shape="195.93,476.85 195.08,478.07 194.25,478.47 193.43,478.04 192.63,476.79" speed="5.56"/>
   </edge>
   <edge function="internal" id=":1141881748_0">
      <lane allow="delivery bicycle pedestrian" id=":1141881748_0_0" index="0" length="0.10" shape="241.87,461.58 241.87,461.59" speed="5.56"/>
   </edge>
   <edge function="internal" id=":1141881748_1">
      <lane allow="delivery bicycle pedestrian" id=":1141881748_1_0" index="0" length="2.41" shape="241.87,461.58 240.62,460.77 240.21,459.94" speed="5.56"/>
   </edge>
   <edge function="internal" id=":1141881748_4">
      <lane id=":1141881748_4_0" index="0" length="2.41" shape="240.21,459.94 240.62,459.12 241.85,458.28" speed="5.56"/>
   </edge>
   <edge function="internal" id=":1141881748_2">
      <lane allow="delivery bicycle pedestrian" id=":1141881748_2_0" index="0" length="0.22" shape="241.63,458.30 241.85,458.28" speed="5.56"/>
   </edge>
   <edge function="internal" id=":1141881748_3">
      <lane allow="delivery bicycle pedestrian" id=":1141881748_3_0" index="0" length="2.41" shape="241.63,458.30 242.92,459.03 243.39,459.82" speed="5.56"/>
   </edge>
   <edge function="internal" id=":1141881748_5">
      <lane id=":1141881748_5_0" index="0" length="2.41" shape="243.39,459.82 243.04,460.67 241.87,461.59" speed="5.56"/>
   </edge>
   <edge function="internal" id=":1141881757_0">
      <lane allow="delivery bicycle pedestrian" id=":1141881757_0_0" index="0" length="2.94" shape="198.98,467.59 197.71,467.51 196.81,467.41 196.27,467.31 196.09,467.20" speed="5.56"/>
   </edge>
   <edge function="internal" id=":1141881757_1">
      <lane allow="delivery bicycle pedestrian" id=":1141881757_1_0" index="0" length="10.11" shape="198.98,467.59 196.27,467.05 194.36,465.77 193.23,463.77 192.89,461.03" speed="5.56"/>
   </edge>
   <edge function="internal" id=":1141881757_2">
      <lane allow="delivery bicycle pedestrian" id=":1141881757_2_0" index="0" length="4.82" shape="198.98,467.59 197.79,466.70 197.42,465.85 197.88,465.05 199.17,464.30" speed="5.56"/>
   </edge>
   <edge function="internal" id=":1141881757_3">
      <lane allow="delivery bicycle pedestrian" id=":1141881757_3_0" index="0" length="4.95" shape="196.19,461.09 196.36,462.43 196.91,463.41 197.84,464.03 199.17,464.30" speed="5.56"/>
   </edge>
   <edge function="internal" id=":1141881757_4">
      <lane allow="delivery bicycle pedestrian" id=":1141881757_4_0" index="0" length="6.12" shape="196.19,461.09 196.09,467.20" speed="5.56"/>
   </edge>
   <edge function="internal" id=":1141881757_5">
      <lane allow="delivery bicycle pedestrian" id=":1141881757_5_0" index="0" length="4.82" shape="196.19,461.09 195.34,462.31 194.51,462.71 193.69,462.28 192.89,461.03" speed="5.56"/>
   </edge>
   <edge function="internal" id=":1141881757_6">
      <lane allow="delivery bicycle pedestrian" id=":1141881757_6_0" index="0" length="6.12" shape="192.79,467.15 192.89,461.03" speed="5.56"/>
   </edge>
   <edge function="internal" id=":1141881757_7">
      <lane allow="delivery bicycle pedestrian" id=":1141881757_7_0" index="0" length="7.79" shape="192.79,467.15 193.21,465.76 194.41,464.83 196.40,464.34 199.17,464.30" speed="5.56"/>
   </edge>
   <edge function="internal" id=":1141881757_8">
      <lane allow="delivery bicycle pedestrian" id=":1141881757_8_0" index="0" length="4.82" shape="192.79,467.15 193.63,465.93 194.46,465.53 195.28,465.95 196.09,467.20" speed="5.56"/>
   </edge>
   <edge function="internal" id=":1141881760_0">
      <lane allow="delivery bicycle pedestrian" id=":1141881760_0_0" index="0" length="4.82" shape="192.96,456.94 193.80,455.72 194.63,455.32 195.45,455.75 196.26,457.00" speed="5.56"/>
   </edge>
   <edge function="internal" id=":1238745_0">
      <lane disallow="tram rail_urban rail rail_electric ship" id=":1238745_0_0" index="0" length="4.61" shape="328.13,802.80 326.85,803.04 325.88,803.56 325.20,804.37 324.82,805.45" speed="25.00"/>
   </edge>
   <edge function="internal" id=":1238745_1">
      <lane disallow="tram rail_urban rail rail_electric ship" id=":1238745_1_0" index="0" length="9.26" shape="328.13,802.80 319.31,799.96" speed="20.83"/>
   </edge>
   <edge function="internal" id=":1238745_2">
      <lane disallow="tram rail_urban rail rail_electric ship" id=":1238745_2_0" index="0" length="2.96" shape="327.90,799.51 326.61,798.77 326.14,797.98 326.35,797.47" speed="27.78"/>
   </edge>
   <edge function="internal" id=":1238745_8">
      <lane id=":1238745_8_0" index="0" length="1.86" shape="326.35,797.47 326.49,797.12 327.67,796.22" speed="27.78"/>
   </edge>
   <edge function="internal" id=":1238745_3">
      <lane disallow="tram rail_urban rail rail_electric ship" id=":1238745_3_0" index="0" length="9.08" shape="318.86,790.07 327.44,792.92" speed="20.83"/>
      <lane disallow="tram rail_urban rail rail_electric ship" id=":1238745_3_1" index="1" length="9.08" shape="319.01,793.36 327.67,796.22" speed="20.83"/>
   </edge>
   <edge function="internal" id=":1238745_5">
      <lane disallow="tram rail_urban rail rail_electric ship" id=":1238745_5_0" index="0" length="7.06" shape="319.16,796.66 322.28,797.08 324.26,798.69 324.66,800.00" speed="18.05"/>
   </edge>
   <edge function="internal" id=":1238745_6">
      <lane disallow="tram rail_urban rail rail_electric ship" id=":1238745_6_0" index="0" length="2.94" shape="319.16,796.66 320.44,797.43 320.89,798.23 320.67,798.71" speed="13.89"/>
   </edge>
   <edge function="internal" id=":1238745_9">
      <lane id=":1238745_9_0" index="0" length="5.53" shape="324.66,800.00 325.11,801.48 324.82,805.45" speed="18.05"/>
   </edge>
   <edge function="internal" id=":1238745_10">
      <lane id=":1238745_10_0" index="0" length="1.88" shape="320.67,798.71 320.51,799.08 319.31,799.96" speed="13.89"/>
   </edge>
   <edge function="internal" id=":1238745_7">
      <lane disallow="tram rail_urban rail rail_electric ship" id=":1238745_7_0" index="0" length="10.94" shape="321.65,804.43 322.58,800.96 323.90,798.43 325.59,796.85 327.67,796.22" speed="25.00"/>
   </edge>
   <edge function="internal" id=":1238747_0">
      <lane disallow="tram rail_urban rail rail_electric ship" id=":1238747_0_0" index="0" length="5.28" shape="309.04,804.31 304.61,801.43" speed="18.05"/>
   </edge>
   <edge function="internal" id=":1238747_1">
      <lane disallow="tram rail_urban rail rail_electric ship" id=":1238747_1_0" index="0" length="5.30" shape="309.80,800.40 304.61,801.43" speed="13.89"/>
   </edge>
   <edge function="internal" id=":1238747_2">
      <lane disallow="tram rail_urban rail rail_electric ship" id=":1238747_2_0" index="0" length="2.15" shape="309.80,800.40 308.53,799.63 308.20,799.05" speed="13.89"/>
   </edge>
   <edge function="internal" id=":1238747_7">
      <lane id=":1238747_7_0" index="0" length="2.67" shape="308.20,799.05 308.08,798.83 308.45,797.98 309.65,797.10" speed="13.89"/>
   </edge>
   <edge function="internal" id=":1238747_3">
      <lane disallow="tram rail_urban rail rail_electric ship" id=":1238747_3_0" index="0" length="4.56" shape="305.29,791.56 309.34,790.51" speed="13.89"/>
      <lane disallow="tram rail_urban rail rail_electric ship" id=":1238747_3_1" index="1" length="4.56" shape="305.06,794.85 309.50,793.80" speed="13.89"/>
      <lane disallow="tram rail_urban rail rail_electric ship" id=":1238747_3_2" index="2" length="4.56" shape="304.84,798.14 309.65,797.10" speed="13.89"/>
   </edge>
   <edge function="internal" id=":1238747_6">
      <lane disallow="tram rail_urban rail rail_electric ship" id=":1238747_6_0" index="0" length="1.96" shape="304.84,798.14 306.01,799.05 306.19,799.49" speed="13.89"/>
   </edge>
   <edge function="internal" id=":1238747_8">
      <lane id=":1238747_8_0" index="0" length="2.86" shape="306.19,799.49 306.37,799.90 305.90,800.70 304.61,801.43" speed="13.89"/>
   </edge>
   <edge function="internal" id=":1276827889_0">
      <lane allow="delivery bicycle pedestrian" id=":1276827889_0_0" index="0" length="0.22" shape="219.43,70.94 219.24,71.04" speed="5.56"/>
   </edge>
   <edge function="internal" id=":1276827893_0">
      <lane allow="delivery bicycle pedestrian" id=":1276827893_0_0" index="0" length="0.51" shape="147.15,48.77 147.64,48.61" speed="5.56"/>
   </edge>
   <edge function="internal" id=":1276827896_0">
      <lane allow="delivery bicycle pedestrian" id=":1276827896_0_0" index="0" length="7.05" shape="167.86,101.90 166.01,103.28 165.53,104.40 166.40,105.26 168.62,105.86" speed="5.56"/>
   </edge>
   <edge function="internal" id=":1276827896_1">
      <lane allow="delivery bicycle pedestrian" id=":1276827896_1_0" index="0" length="5.00" shape="167.86,101.90 163.61,104.55" speed="5.56"/>
   </edge>
   <edge function="internal" id=":1287445228_0">
      <lane disallow="tram rail_urban rail rail_electric ship" id=":1287445228_0_0" index="0" length="0.10" shape="380.37,431.32 380.37,431.32" speed="13.89"/>
   </edge>
   <edge function="internal" id=":1301836061_0">
      <lane disallow="tram rail_urban rail rail_electric ship" id=":1301836061_0_0" index="0" length="5.45" shape="511.40,397.75 510.84,399.06 510.01,400.06 508.91,400.77 507.55,401.18" speed="13.89"/>
   </edge>
   <edge function="internal" id=":1301836061_1">
      <lane disallow="tram rail_urban rail rail_electric ship" id=":1301836061_1_0" index="0" length="2.84" shape="511.40,397.75 510.26,398.70 509.35,398.86 509.03,398.56" speed="13.89"/>
   </edge>
   <edge function="internal" id=":1301836061_4">
      <lane id=":1301836061_4_0" index="0" length="1.97" shape="509.03,398.56 508.68,398.23 508.24,396.81" speed="13.89"/>
   </edge>
   <edge function="internal" id=":1301836061_2">
      <lane disallow="tram rail_urban rail rail_electric ship" id=":1301836061_2_0" index="0" length="1.78" shape="506.98,397.92 507.43,397.79 507.79,397.56 508.06,397.23 508.24,396.81" speed="13.89"/>
   </edge>
   <edge function="internal" id=":1301836061_3">
      <lane disallow="tram rail_urban rail rail_electric ship" id=":1301836061_3_0" index="0" length="2.08" shape="506.98,397.92 508.35,398.53 508.70,399.00" speed="13.89"/>
   </edge>
   <edge function="internal" id=":1301836061_5">
      <lane id=":1301836061_5_0" index="0" length="2.74" shape="508.70,399.00 508.89,399.27 508.63,400.15 507.55,401.18" speed="13.89"/>
   </edge>
   <edge function="internal" id=":1301836086_0">
      <lane disallow="tram rail_urban rail rail_electric ship" id=":1301836086_0_0" index="0" length="0.10" shape="461.29,401.52 461.29,401.53" speed="13.89"/>
   </edge>
   <edge function="internal" id=":1301836086_1">
      <lane disallow="tram rail_urban rail rail_electric ship" id=":1301836086_1_0" index="0" length="2.41" shape="461.29,401.52 462.09,400.27 462.90,399.84" speed="13.89"/>
   </edge>
   <edge function="internal" id=":1301836086_4">
      <lane id=":1301836086_4_0" index="0" length="2.41" shape="462.90,399.84 463.73,400.23 464.59,401.45" speed="13.89"/>
   </edge>
   <edge function="internal" id=":1301836086_2">
      <lane disallow="tram rail_urban rail rail_electric ship" id=":1301836086_2_0" index="0" length="0.10" shape="464.59,401.45 464.59,401.45" speed="13.89"/>
   </edge>
   <edge function="internal" id=":1301836086_3">
      <lane disallow="tram rail_urban rail rail_electric ship" id=":1301836086_3_0" index="0" length="2.41" shape="464.59,401.45 463.79,402.71 462.98,403.14" speed="13.89"/>
   </edge>
   <edge function="internal" id=":1301836086_5">
      <lane id=":1301836086_5_0" index="0" length="2.41" shape="462.98,403.14 462.14,402.75 461.29,401.53" speed="13.89"/>
   </edge>
   <edge function="internal" id=":1301836092_0">
      <lane disallow="tram rail_urban rail rail_electric ship" id=":1301836092_0_0" index="0" length="5.82" shape="468.51,407.75 466.77,408.21 465.49,408.93 464.67,409.90 464.31,411.13" speed="13.89"/>
   </edge>
   <edge function="internal" id=":1301836092_1">
      <lane disallow="tram rail_urban rail rail_electric ship" id=":1301836092_1_0" index="0" length="11.08" shape="468.51,407.75 465.41,407.82 463.17,406.85 461.80,404.83 461.29,401.77" speed="13.89"/>
   </edge>
   <edge function="internal" id=":1301836092_2">
      <lane disallow="tram rail_urban rail rail_electric ship" id=":1301836092_2_0" index="0" length="4.82" shape="468.51,407.75 467.16,407.14 466.61,406.40 466.88,405.52 467.97,404.50" speed="13.89"/>
   </edge>
   <edge function="internal" id=":1301836092_3">
      <lane disallow="tram rail_urban rail rail_electric ship" id=":1301836092_3_0" index="0" length="5.18" shape="464.59,401.70 464.83,403.13 465.47,404.08 466.52,404.53 467.97,404.50" speed="13.89"/>
   </edge>
   <edge function="internal" id=":1301836092_4">
      <lane disallow="tram rail_urban rail rail_electric ship" id=":1301836092_4_0" index="0" length="9.43" shape="464.59,401.70 464.31,411.13" speed="13.89"/>
   </edge>
   <edge function="internal" id=":1301836092_5">
      <lane disallow="tram rail_urban rail rail_electric ship" id=":1301836092_5_0" index="0" length="2.55" shape="464.59,401.70 463.79,402.96 462.98,403.39 462.85,403.32" speed="13.89"/>
   </edge>
   <edge function="internal" id=":1301836092_9">
      <lane id=":1301836092_9_0" index="0" length="2.27" shape="462.85,403.32 462.14,402.99 461.29,401.77" speed="13.89"/>
   </edge>
   <edge function="internal" id=":1301836092_6">
      <lane disallow="tram rail_urban rail rail_electric ship" id=":1301836092_6_0" index="0" length="9.04" shape="461.02,410.81 461.29,401.77" speed="13.89"/>
   </edge>
   <edge function="internal" id=":1301836092_7">
      <lane disallow="tram rail_urban rail rail_electric ship" id=":1301836092_7_0" index="0" length="4.43" shape="461.02,410.81 461.65,408.45 462.84,406.85" speed="13.89"/>
   </edge>
   <edge function="internal" id=":1301836092_8">
      <lane disallow="tram rail_urban rail rail_electric ship" id=":1301836092_8_0" index="0" length="2.41" shape="461.02,410.81 461.97,409.65 462.83,409.32" speed="13.89"/>
   </edge>
   <edge function="internal" id=":1301836092_10">
      <lane id=":1301836092_10_0" index="0" length="5.74" shape="462.84,406.85 463.01,406.61 465.12,405.30 467.97,404.50" speed="13.89"/>
   </edge>
   <edge function="internal" id=":1301836092_11">
      <lane id=":1301836092_11_0" index="0" length="2.41" shape="462.83,409.32 463.61,409.81 464.31,411.13" speed="13.89"/>
   </edge>
   <edge function="internal" id=":1304163101_0">
      <lane disallow="tram rail_urban rail rail_electric ship" id=":1304163101_0_0" index="0" length="9.30" shape="604.35,316.95 604.27,307.64" speed="2.78"/>
   </edge>
   <edge function="internal" id=":1304163101_1">
      <lane disallow="tram rail_urban rail rail_electric ship" id=":1304163101_1_0" index="0" length="10.17" shape="604.35,316.95 604.73,314.26 605.92,312.31 607.91,311.12 610.72,310.67" speed="2.78"/>
   </edge>
   <edge function="internal" id=":1304163101_2">
      <lane disallow="tram rail_urban rail rail_electric ship" id=":1304163101_2_0" index="0" length="6.23" shape="604.35,316.95 604.14,315.04 604.62,313.94 605.78,313.67 607.63,314.22" speed="2.78"/>
   </edge>
   <edge function="internal" id=":1304163101_3">
      <lane disallow="tram rail_urban rail rail_electric ship" id=":1304163101_3_0" index="0" length="3.19" shape="610.80,313.97 609.41,314.01 608.42,314.07 607.82,314.13 607.63,314.22" speed="2.78"/>
   </edge>
   <edge function="internal" id=":1304163101_4">
      <lane disallow="tram rail_urban rail rail_electric ship" id=":1304163101_4_0" index="0" length="10.40" shape="610.80,313.97 607.96,313.63 605.93,312.46 604.70,310.47 604.27,307.64" speed="2.78"/>
   </edge>
   <edge function="internal" id=":1304163101_5">
      <lane disallow="tram rail_urban rail rail_electric ship" id=":1304163101_5_0" index="0" length="4.82" shape="610.80,313.97 609.54,313.17 609.11,312.36 609.50,311.52 610.72,310.67" speed="2.78"/>
   </edge>
   <edge function="internal" id=":1304163101_6">