<?xml version="1.0" encoding="utf-8"?><!-- generated on 10/11/17 17:55:41 by SUMO polyconvert Version 0.25.0
<?xml version="1.0" encoding="UTF-8"?>

<configuration xmlns:xsi="http://www.w3.org/2001/XMLSchema-instance" xsi:noNamespaceSchemaLocation="http://sumo.dlr.de/xsd/polyconvertConfiguration.xsd">

    <input>
        <net-file value="K_Altstadt_historical_800.net.xml"/>
        <osm-files value="K_Altstadt_historical_800.osm"/>
        <type-file value="osmPolyconvert.typ.xml"/>
    </input>

    <output>
        <output-file value="K_Altstadt_historical_800.poly.xml"/>
    </output>

    <projection>
        <proj.utm value="true"/>
    </projection>

    <processing>
        <poi-layer-offset value="5"/>
    </processing>

</configuration>
-->
<additional>
   <location convBoundary="-16.33,-5.33,844.57,824.99" netOffset="-356081.64,-5644534.55" origBoundary="6.951501,50.934600,6.963490,50.941900" projParameter="+proj=utm +zone=32 +ellps=WGS84 +datum=WGS84 +units=m +no_defs"/>
   <poly color="red" fill="1" id="100043241" layer="-1.00" shape="338.73,537.60 338.71,535.32 338.69,533.92 338.68,533.23 351.05,533.06 351.58,537.54 338.73,537.60" type="building"/>
   <poly color="red" fill="1" id="101052280" layer="-1.00" shape="326.06,679.84 325.42,671.58 330.90,670.87 336.67,670.13 338.47,676.12 335.68,676.48 335.97,678.25 335.09,678.41 326.06,679.84" type="building"/>
   <poly color="128,255,128" fill="1" id="101052280#1" layer="-1.00" shape="326.06,679.84 325.42,671.58 330.90,670.87 336.67,670.13 338.47,676.12 335.68,676.48 335.97,678.25 335.09,678.41 326.06,679.84" type="historic"/>
   <poly color="red" fill="1" id="101052283" layer="-1.00" shape="326.53,687.33 326.49,686.96 326.74,686.95 326.37,680.19 326.09,680.18 326.06,679.84 335.09,678.41 335.72,682.93 339.47,682.48 339.77,685.23 336.13,685.83 326.53,687.33" type="building"/>
   <poly color="red" fill="1" id="10152395" layer="-1.00" shape="490.32,699.13 490.04,660.53 489.80,639.41 492.93,639.33 537.94,639.09 540.37,639.08 547.09,639.04 547.41,660.54 547.49,668.78 547.70,698.91 490.32,699.13" type="building"/>
   <poly color="207,245,201" fill="1" id="10152395#1" layer="-2.00" shape="490.32,699.13 490.04,660.53 489.80,639.41 492.93,639.33 537.94,639.09 540.37,639.08 547.09,639.04 547.41,660.54 547.49,668.78 547.70,698.91 490.32,699.13" type="tourism"/>
   <poly color="237,199,199" fill="1" id="10154135" layer="-1.00" shape="630.50,699.62 630.54,702.18 631.36,702.22 631.41,710.41 621.53,710.45 621.56,713.09 622.41,713.10 622.48,721.24 613.53,721.29 613.49,723.17 595.40,723.35 595.42,721.48 586.45,721.61 586.42,718.06 573.83,718.20 573.88,716.32 571.90,716.36 570.29,716.41 570.23,712.84 561.24,712.89 561.22,710.98 557.67,711.06 557.51,702.94 559.32,702.92 559.31,698.58 555.28,698.64 555.27,696.89 554.12,696.89 554.12,693.91 555.23,693.88 555.22,691.50 554.11,691.48 554.09,688.50 555.18,688.52 555.16,686.10 554.07,686.10 554.06,683.12 555.18,683.11 555.16,680.70 554.01,680.69 554.00,677.71 555.14,677.70 555.06,675.94 556.42,675.94 556.30,668.69 569.85,668.54 581.61,668.41 591.42,668.31 591.39,665.01 594.46,664.97 594.39,663.36 594.36,662.55 606.64,662.45 606.56,648.44 624.27,648.41 641.04,648.38 681.24,648.30 681.35,650.90 701.14,650.78 701.12,653.25 715.55,653.16 715.61,663.77 719.23,663.72 719.26,671.76 703.12,672.01 703.12,674.68 699.42,674.71 699.43,676.25 690.86,676.31 681.51,676.38 681.52,679.52 659.95,679.62 659.95,681.60 660.08,683.14 656.51,683.20 656.53,684.75 640.63,684.81 640.66,691.45 642.00,691.45 642.13,699.44 636.81,699.52 630.50,699.62" type="amenity"/>
   <poly color="red" fill="1" id="10154135#1" layer="-1.00" shape="630.50,699.62 630.54,702.18 631.36,702.22 631.41,710.41 621.53,710.45 621.56,713.09 622.41,713.10 622.48,721.24 613.53,721.29 613.49,723.17 595.40,723.35 595.42,721.48 586.45,721.61 586.42,718.06 573.83,718.20 573.88,716.32 571.90,716.36 570.29,716.41 570.23,712.84 561.24,712.89 561.22,710.98 557.67,711.06 557.51,702.94 559.32,702.92 559.31,698.58 555.28,698.64 555.27,696.89 554.12,696.89 554.12,693.91 555.23,693.88 555.22,691.50 554.11,691.48 554.09,688.50 555.18,688.52 555.16,686.10 554.07,686.10 554.06,683.12 555.18,683.11 555.16,680.70 554.01,680.69 554.00,677.71 555.14,677.70 555.06,675.94 556.42,675.94 556.30,668.69 569.85,668.54 581.61,668.41 591.42,668.31 591.39,665.01 594.46,664.97 594.39,663.36 594.36,662.55 606.64,662.45 606.56,648.44 624.27,648.41 641.04,648.38 681.24,648.30 681.35,650.90 701.14,650.78 701.12,653.25 715.55,653.16 715.61,663.77 719.23,663.72 719.26,671.76 703.12,672.01 703.12,674.68 699.42,674.71 699.43,676.25 690.86,676.31 681.51,676.38 681.52,679.52 659.95,679.62 659.95,681.60 660.08,683.14 656.51,683.20 656.53,684.75 640.63,684.81 640.66,691.45 642.00,691.45 642.13,699.44 636.81,699.52 630.50,699.62" type="building"/>
   <poly color="194,194,130" fill="1" id="113546891" layer="-3.00" shape="375.66,426.82 369.70,427.21 367.23,391.55 373.22,391.53 375.66,426.82" type="landuse"/>
   <poly color="237,199,199" fill="1" id="114979719" layer="-1.00" shape="413.90,699.14 426.76,698.59 426.31,686.14 413.32,686.59 413.90,699.14" type="amenity"/>
   <poly color="207,245,201" fill="1" id="114979719#1" layer="-2.00" shape="413.90,699.14 426.76,698.59 426.31,686.14 413.32,686.59 413.90,699.14" type="tourism"/>
   <poly color="237,199,199" fill="1" id="115096258" layer="-1.00" shape="485.21,491.09 485.45,495.92 490.27,495.67 490.03,490.85 485.21,491.09" type="amenity"/>
   <poly color="red" fill="1" id="115421108" layer="-1.00" shape="617.67,222.29 617.69,216.10 622.79,216.11 622.78,222.30 617.67,222.29" type="building"/>
   <poly color="red" fill="1" id="115421109" layer="-1.00" shape="617.39,286.37 617.41,282.08 622.51,282.10 622.49,286.38 617.39,286.37" type="building"/>
   <poly color="194,194,130" fill="1" id="120070272" layer="-3.00" shape="672.98,189.35 713.44,189.64 709.17,186.81 691.79,183.54 685.48,183.23 676.65,183.85 674.21,184.75 673.19,185.97 672.98,189.35" type="landuse"/>
   <poly color="194,194,130" fill="1" id="120070275" layer="-3.00" shape="690.80,165.92 693.25,159.45 655.69,144.42 642.83,140.24 642.29,142.25 632.61,139.64 631.73,141.57 624.74,139.71 624.08,140.90 622.71,142.71 651.42,152.27 690.80,165.92" type="landuse"/>
   <poly color="237,199,199" fill="1" id="131886625" layer="-1.00" shape="60.61,400.04 63.53,400.19 66.31,398.87 67.62,397.33 68.38,395.25 68.36,393.11 67.32,390.68 65.67,389.13 62.36,388.17 59.55,388.87 57.48,390.64 56.42,393.04 56.41,395.35 57.51,397.85 59.02,399.28 60.61,400.04" type="amenity"/>
   <poly color="128,255,128" fill="1" id="131886625#1" layer="-1.00" shape="60.61,400.04 63.53,400.19 66.31,398.87 67.62,397.33 68.38,395.25 68.36,393.11 67.32,390.68 65.67,389.13 62.36,388.17 59.55,388.87 57.48,390.64 56.42,393.04 56.41,395.35 57.51,397.85 59.02,399.28 60.61,400.04" type="historic"/>
   <poly color="181,209,209" fill="1" id="131886625#2" layer="-4.00" shape="60.61,400.04 63.53,400.19 66.31,398.87 67.62,397.33 68.38,395.25 68.36,393.11 67.32,390.68 65.67,389.13 62.36,388.17 59.55,388.87 57.48,390.64 56.42,393.04 56.41,395.35 57.51,397.85 59.02,399.28 60.61,400.04" type="water"/>
   <poly color="red" fill="1" id="131890285" layer="-1.00" shape="584.88,90.20 577.53,89.81 576.33,89.76 575.80,97.39 575.57,103.16 579.52,103.03 583.44,103.46 584.13,97.76 585.00,97.93 585.44,92.19 584.67,92.07 584.88,90.20" type="building"/>
   <poly color="128,255,128" fill="1" id="131890285#1" layer="-1.00" shape="584.88,90.20 577.53,89.81 576.33,89.76 575.80,97.39 575.57,103.16 579.52,103.03 583.44,103.46 584.13,97.76 585.00,97.93 585.44,92.19 584.67,92.07 584.88,90.20" type="historic"/>
   <poly color="red" fill="1" id="135784397" layer="-1.00" shape="63.55,816.05 63.57,815.47 63.71,805.02 63.91,791.16 63.92,790.97 77.87,791.28 79.55,791.18 79.39,803.18 79.12,816.27 63.55,816.05" type="building"/>
   <poly color="red" fill="1" id="135784417" layer="-1.00" shape="42.97,815.16 43.10,804.78 63.71,805.02 63.57,815.47 46.60,815.23 42.97,815.16" type="building"/>
   <poly color="red" fill="0" id="135784424" layer="-1.00" shape="2.96,799.71 3.43,809.07 3.67,814.44" type="building"/>
   <poly color="red" fill="1" id="135784426" layer="-1.00" shape="3.93,819.20 3.94,818.52 3.91,814.44 3.67,814.44 3.43,809.07 9.55,808.70 9.55,810.49 9.88,819.00 3.93,819.20" type="building"/>
   <poly color="128,255,128" fill="1" id="135786922" layer="-1.00" shape="108.28,769.17 113.55,769.19 113.57,766.88 115.05,765.30 117.43,765.25 120.82,766.16 122.72,767.28 122.71,769.46 139.92,769.54 139.90,772.00 108.27,771.86 108.28,769.17" type="historic"/>
   <poly color="237,199,199" fill="1" id="137399526" layer="-1.00" shape="739.97,669.45 739.02,667.77 740.11,663.25 743.83,654.18 749.76,646.12 753.45,632.85 757.45,630.78 761.38,629.71 766.71,629.98 768.69,633.84 769.15,638.14 766.76,643.17 759.18,649.89 752.29,653.94 747.55,660.54 745.00,665.28 741.90,668.98 739.97,669.45" type="amenity"/>
   <poly color="194,194,130" fill="1" id="142387034" layer="-3.00" shape="627.82,47.20 631.80,43.27 640.08,38.95 645.73,37.47 662.09,37.66 702.02,38.38 709.67,38.15 715.67,37.75 719.10,37.46 719.14,36.29 710.52,35.85 651.98,35.34 644.10,35.73 639.14,36.95 634.36,38.72 630.25,41.55 625.93,45.08 627.82,47.20" type="landuse"/>
   <poly color="194,194,130" fill="1" id="142387035" layer="-3.00" shape="607.46,53.46 606.13,50.53 610.06,47.92 611.02,49.77 607.46,53.46" type="landuse"/>
   <poly color="194,194,130" fill="1" id="142387036" layer="-3.00" shape="621.49,55.65 620.01,51.83 621.75,49.56 623.91,52.50 621.49,55.65" type="landuse"/>
   <poly color="194,194,130" fill="1" id="142387037" layer="-3.00" shape="611.81,37.95 604.41,27.42 613.34,33.66 612.92,37.85 611.81,37.95" type="landuse"/>
   <poly color="194,194,130" fill="1" id="142387038" layer="-3.00" shape="777.43,16.23 778.41,17.35 785.31,18.17 785.52,8.54 784.01,8.10 777.43,16.23" type="landuse"/>
   <poly color="194,194,130" fill="1" id="142387039" layer="-3.00" shape="777.47,25.29 772.66,20.12 768.33,22.34 768.05,23.57 768.19,24.35 769.09,24.91 777.47,25.29" type="landuse"/>
   <poly color="194,194,130" fill="1" id="142387040" layer="-3.00" shape="795.39,29.12 800.31,32.52 795.39,29.12" type="landuse"/>
   <poly color="194,194,130" fill="1" id="142387041" layer="-3.00" shape="604.18,43.36 602.07,39.13 598.75,33.73 596.53,30.72 597.60,30.08 602.86,36.66 606.16,41.67 604.18,43.36" type="landuse"/>
   <poly color="194,194,130" fill="1" id="142387042" layer="-3.00" shape="622.33,39.52 625.30,36.41 627.09,32.91 628.31,29.98 628.27,29.05 620.96,29.01 619.89,33.87 620.66,36.60 622.33,39.52" type="landuse"/>
   <poly color="237,199,199" fill="1" id="142820042" layer="-1.00" shape="373.64,592.90 373.64,575.04 373.33,574.65 373.26,571.90 373.23,569.95 373.43,569.94 373.24,567.59 373.76,567.58 383.87,567.11 385.00,572.90 385.44,579.16 385.51,580.13 385.51,592.91 379.68,592.92 373.64,592.90" type="amenity"/>
   <poly color="red" fill="1" id="142820042#1" layer="-1.00" shape="373.64,592.90 373.64,575.04 373.33,574.65 373.26,571.90 373.23,569.95 373.43,569.94 373.24,567.59 373.76,567.58 383.87,567.11 385.00,572.90 385.44,579.16 385.51,580.13 385.51,592.91 379.68,592.92 373.64,592.90" type="building"/>
   <poly color="red" fill="1" id="142820043" layer="-1.00" shape="392.75,592.83 392.47,579.14 392.38,573.82 397.89,573.73 398.32,573.84 398.70,574.09 399.00,574.42 399.20,574.92 399.23,576.10 401.77,576.08 402.81,592.73 397.46,592.79 392.75,592.83" type="building"/>
   <poly color="red" fill="1" id="142820044" layer="-1.00" shape="392.60,567.64 393.12,548.97 407.27,548.71 407.61,560.99 407.81,567.00 401.18,567.90 392.60,567.64" type="building"/>
   <poly color="red" fill="1" id="143856643" layer="-1.00" shape="144.22,447.84 140.99,435.24 145.47,435.96 154.98,437.49 154.83,442.67 154.67,448.15 144.22,447.84" type="building"/>
   <poly color="237,199,199" fill="1" id="145035079" layer="-1.00" shape="24.55,132.62 30.89,131.19 30.06,121.42 26.43,121.47 21.25,121.88 21.59,129.99 24.32,129.95 24.55,132.62" type="amenity"/>
   <poly color="red" fill="1" id="145035079#1" layer="-1.00" shape="24.55,132.62 30.89,131.19 30.06,121.42 26.43,121.47 21.25,121.88 21.59,129.99 24.32,129.95 24.55,132.62" type="building"/>
   <poly color="194,194,130" fill="1" id="145756321" layer="-3.00" shape="429.12,618.44 440.87,617.82 442.24,615.67 426.35,617.21 429.12,618.44" type="landuse"/>
   <poly color="red" fill="1" id="147637296" layer="-1.00" shape="790.97,737.56" type="building"/>
   <poly color="red" fill="1" id="148226589" layer="-1.00" shape="248.04,366.52 246.56,361.40 245.43,361.72 244.77,359.39 246.32,356.02 253.01,353.97 255.50,364.35 248.04,366.52" type="building"/>
   <poly color="red" fill="0" id="150046965" layer="-1.00" shape="788.72,785.03 790.95,784.84 793.03,773.41 797.23,773.27" type="building"/>
   <poly color="128,255,128" fill="1" id="154567191" layer="-1.00" shape="507.49,634.82 536.98,634.49 537.18,629.16 507.43,629.56 507.49,634.82" type="historic"/>
   <poly color="128,255,128" fill="1" id="160627788" layer="-1.00" shape="360.31,770.20 360.30,769.55 360.26,768.13 360.78,768.03 360.81,767.55 360.80,766.98 359.13,766.89 359.10,767.49 356.71,767.45 356.69,766.80 355.23,766.76 355.26,767.53 354.24,767.43 354.23,769.14 354.89,769.13 354.90,769.53 356.99,769.55 357.00,769.14 358.70,769.11 358.70,769.57 359.78,769.58 359.79,770.17 360.31,770.20" type="historic"/>
   <poly color="237,199,199" fill="1" id="16186002" layer="-1.00" shape="524.91,409.09 529.80,421.50 530.21,421.37 542.80,416.34 547.54,427.24 563.67,423.61 558.83,401.42 524.91,409.09" type="amenity"/>
   <poly color="red" fill="1" id="16186002#1" layer="-1.00" shape="524.91,409.09 529.80,421.50 530.21,421.37 542.80,416.34 547.54,427.24 563.67,423.61 558.83,401.42 524.91,409.09" type="building"/>
   <poly color="red" fill="1" id="170497332" layer="-1.00" shape="314.80,569.32 314.68,572.68 319.66,572.96 321.07,573.90 321.13,575.90 319.67,576.90 314.45,576.76 314.20,581.24 323.27,581.21 322.54,569.19 314.80,569.32" type="building"/>
   <poly color="red" fill="1" id="170497334" layer="-1.00" shape="311.96,581.22 311.89,581.43 310.11,581.73 310.43,584.43 308.04,584.71 308.63,590.40 308.84,592.46 309.05,592.44 315.68,591.62 320.18,591.23 325.84,591.27 325.61,584.21 323.49,584.29 323.27,581.21 314.20,581.24 311.96,581.22" type="building"/>
   <poly color="194,194,130" fill="1" id="174672622" layer="-3.00" shape="614.49,56.51 608.70,62.22 607.17,65.42 607.19,68.70 608.62,79.93 611.67,81.68 621.39,86.75 624.06,86.34 620.63,74.34 616.92,61.42 614.49,56.51" type="landuse"/>
   <poly color="207,245,201" fill="1" id="174672623" layer="-2.00" shape="595.16,65.55 597.47,62.72 598.08,61.33 598.86,59.27 599.60,57.57 599.88,52.24 595.53,53.33 596.57,56.63 596.79,59.51 596.37,61.76 595.10,64.03 595.16,65.55" type="tourism"/>
   <poly color="194,194,130" fill="1" id="174672624" layer="-3.00" shape="596.07,45.52 598.98,44.79 596.17,39.34 596.07,45.52" type="landuse"/>
   <poly color="194,194,130" fill="1" id="174672625" layer="-3.00" shape="603.96,78.65 602.52,68.34 598.11,72.97 598.64,74.92 599.52,76.50 600.91,77.31 603.96,78.65" type="landuse"/>
   <poly color="red" fill="1" id="176387719" layer="-1.00" shape="806.02,804.97 800.89,805.41 800.19,797.00 805.32,796.57 806.02,804.97" type="building"/>
   <poly color="237,199,255" fill="1" id="176387719#1" layer="-1.00" shape="806.02,804.97 800.89,805.41 800.19,797.00 805.32,796.57 806.02,804.97" type="shop"/>
   <poly color="red" fill="1" id="184752009" layer="-1.00" shape="17.38,314.37 22.03,313.74 25.06,336.00 25.36,335.97 27.59,352.43 22.66,353.11 17.38,314.37" type="building"/>
   <poly color="red" fill="1" id="189054305" layer="-1.00" shape="437.46,487.30 429.00,487.70 428.98,473.83 428.98,464.63 437.42,464.61 437.35,474.08 434.97,474.06 435.03,479.04 437.36,479.02 437.46,487.30" type="building"/>
   <poly color="red" fill="1" id="191250682" layer="-1.00" shape="790.22,772.12 790.10,768.56 790.19,764.94 790.33,761.74 790.47,757.21 790.55,753.59 790.78,750.63 790.90,746.32 790.89,745.32 790.91,738.78 790.97,737.56 791.01,735.62 790.76,722.83 795.18,722.55 794.84,714.32 759.12,716.05 759.54,724.75 724.89,726.94 723.86,726.06 722.08,725.50 719.80,726.02 719.25,726.40 718.13,727.85 717.78,729.30 716.08,729.87 714.34,730.11 712.15,729.65 712.02,728.41 710.86,726.50 709.86,725.82 708.45,725.45 706.70,725.70 705.10,726.82 704.24,728.47 703.39,729.35 702.13,729.93 700.93,730.10 699.42,729.98 697.50,729.11 696.97,727.65 695.91,726.53 693.93,725.86 692.13,726.24 690.97,727.10 690.34,728.03 690.07,728.84 688.65,728.86 687.54,728.91 680.74,730.90 683.76,737.48 681.03,742.47 674.81,745.63 662.03,747.81 642.21,751.19 590.88,781.79 585.54,785.61 607.65,784.14 696.51,805.45 710.06,795.44 725.27,786.91 735.13,782.73 735.35,786.90 746.18,786.58 746.12,785.13 748.41,785.03 748.49,782.62 761.70,781.73 761.64,783.06 767.17,782.77 767.17,781.78 783.40,781.44 783.65,785.20 785.57,785.17 786.78,785.19 790.63,785.31 797.51,785.05 797.06,775.26 793.03,773.41 790.54,772.26 790.22,772.12" type="building"/>
   <poly color="red" fill="1" id="199237898" layer="-1.00" shape="557.73,443.70 554.85,440.71 557.51,439.79 557.31,438.96 556.79,433.64 567.13,432.02 567.41,434.42 568.84,442.41 558.84,443.57 557.73,443.70" type="building"/>
   <poly color="194,194,130" fill="0" id="200676845" layer="-3.00" shape="38.20,425.66 60.12,421.10 56.40,405.82 52.11,382.03 43.04,336.04 62.11,329.82 60.39,308.32 54.72,298.01 3.06,301.38" type="landuse"/>
   <poly color="184,184,179" fill="1" id="200761518" layer="-1.00" shape="117.85,415.37 122.31,413.53 104.66,345.89 98.64,346.76 117.85,415.37" type="parking"/>
   <poly color="red" fill="1" id="203907514" layer="-1.00" shape="326.29,601.35 319.40,602.39 319.78,607.01 326.80,606.27 326.29,601.35" type="building"/>
   <poly color="red" fill="1" id="203907516" layer="-1.00" shape="304.30,601.94 303.89,592.98 307.14,592.61 308.84,592.46 309.05,592.44 309.75,601.51 304.30,601.94" type="building"/>
   <poly color="red" fill="1" id="203907517" layer="-1.00" shape="327.33,611.98 320.25,612.71 318.83,612.88 319.15,616.20 322.30,615.99 327.68,615.75 327.33,611.98" type="building"/>
   <poly color="red" fill="1" id="203907518" layer="-1.00" shape="334.69,605.43 326.80,606.27 326.29,601.35 334.23,600.21 334.51,602.99 334.69,605.43" type="building"/>
   <poly color="red" fill="1" id="203907519" layer="-1.00" shape="327.33,611.98 320.25,612.71 319.78,607.01 326.80,606.27 334.69,605.43 335.11,608.57 335.38,611.15 327.33,611.98" type="building"/>
   <poly color="red" fill="1" id="203907520" layer="-1.00" shape="335.38,611.15 335.68,614.12 335.81,615.35 327.68,615.75 327.33,611.98 335.38,611.15" type="building"/>
   <poly color="red" fill="1" id="203907521" layer="-1.00" shape="327.68,615.75 335.81,615.35 336.02,617.44 336.43,621.28 323.62,622.43 323.23,617.84 322.50,617.93 322.30,615.99 327.68,615.75" type="building"/>
   <poly color="red" fill="1" id="206647189" layer="-1.00" shape="473.34,48.94 473.47,52.54 482.12,52.20 481.69,46.42 473.33,46.58 473.34,48.94" type="building"/>
   <poly color="237,199,199" fill="1" id="207948389" layer="-1.00" shape="417.06,323.76 416.55,317.65 424.24,317.02 424.75,323.12 417.06,323.76" type="amenity"/>
   <poly color="red" fill="1" id="207948389#1" layer="-1.00" shape="417.06,323.76 416.55,317.65 424.24,317.02 424.75,323.12 417.06,323.76" type="building"/>
   <poly color="128,255,128" fill="1" id="207948389#2" layer="-1.00" shape="417.06,323.76 416.55,317.65 424.24,317.02 424.75,323.12 417.06,323.76" type="historic"/>
   <poly color="237,199,199" fill="1" id="207948390" layer="-1.00" shape="430.09,316.25 429.64,312.23 436.19,311.48 436.65,315.51 430.09,316.25" type="amenity"/>
   <poly color="red" fill="1" id="207948390#1" layer="-1.00" shape="430.09,316.25 429.64,312.23 436.19,311.48 436.65,315.51 430.09,316.25" type="building"/>
   <poly color="128,255,128" fill="1" id="207948390#2" layer="-1.00" shape="430.09,316.25 429.64,312.23 436.19,311.48 436.65,315.51 430.09,316.25" type="historic"/>
   <poly color="red" fill="1" id="211466082" layer="-1.00" shape="523.60,109.21 524.07,100.29 524.07,99.31 526.18,98.26 528.85,100.21 528.16,110.14 526.50,109.80 523.60,109.21" type="building"/>
   <poly color="red" fill="1" id="212724163" layer="-1.00" shape="693.67,380.12 694.32,377.87 696.58,370.21 696.76,369.59 701.57,370.99 703.94,371.69 701.73,379.02 701.25,378.91 700.49,381.89 699.58,381.66 693.67,380.12" type="building"/>
   <poly color="red" fill="1" id="212724165" layer="-1.00" shape="670.17,373.39 672.68,358.50 679.03,359.96 677.47,369.67 676.70,374.37 670.17,373.39" type="building"/>
   <poly color="red" fill="1" id="212826690" layer="-1.00" shape="300.83,396.34 300.61,390.48 299.97,387.59 304.24,386.29 304.14,385.69 306.71,385.20 308.09,395.31 307.23,395.42 300.83,396.34" type="building"/>
   <poly color="red" fill="1" id="212826694" layer="-1.00" shape="315.18,381.66 314.80,377.64 314.25,371.67 313.12,364.76 316.91,363.65 317.85,364.37 318.77,365.08 320.55,381.29 315.18,381.66" type="building"/>
   <poly color="128,255,128" fill="1" id="212826694#1" layer="-1.00" shape="315.18,381.66 314.80,377.64 314.25,371.67 313.12,364.76 316.91,363.65 317.85,364.37 318.77,365.08 320.55,381.29 315.18,381.66" type="historic"/>
   <poly color="red" fill="1" id="219699485" layer="-1.00" shape="360.11,550.58 360.82,556.48 357.58,556.75 352.44,556.89 339.57,557.53 339.30,551.96 360.11,550.58" type="building"/>
   <poly color="red" fill="1" id="219700368" layer="-1.00" shape="338.03,520.69 339.97,518.66 344.65,518.56 355.63,518.29 356.06,529.99 351.12,530.22 351.05,533.06 338.68,533.23 338.52,530.07 338.22,524.25 338.03,520.69" type="building"/>
   <poly color="128,255,128" fill="1" id="224502393" layer="-1.00" shape="503.67,404.78 509.45,429.93 512.11,430.38 514.19,439.16 531.31,435.14 528.05,422.40 529.80,421.50 524.91,409.09 523.91,404.69 517.82,406.19 516.60,401.82 503.67,404.78" type="historic"/>
   <poly color="red" fill="1" id="225312062" layer="-1.00" shape="480.45,176.60 480.48,172.54 467.85,172.72 467.28,161.78 466.94,159.11 462.46,160.07 460.78,160.43 459.09,160.78 453.68,161.98 451.01,155.36 451.22,120.31 457.08,111.28 473.23,121.02 481.96,125.12 490.83,128.51 507.47,133.30 502.99,163.79 501.18,176.46 480.45,176.60" type="building"/>
   <poly color="red" fill="0" id="229660352" layer="-1.00" shape="81.78,609.75 85.49,586.77" type="building"/>
   <poly color="red" fill="1" id="229660354" layer="-1.00" shape="61.78,636.75 64.31,620.69 60.98,620.26 58.55,636.23 61.78,636.75" type="building"/>
   <poly color="237,199,199" fill="1" id="229660359" layer="-1.00" shape="70.55,597.13 98.87,600.77 97.70,611.54 90.42,610.89 81.78,609.75 75.42,608.96 75.58,607.58 78.15,607.84 78.80,605.09 78.53,602.30 69.93,601.01 70.55,597.13" type="amenity"/>
   <poly color="red" fill="1" id="229660359#1" layer="-1.00" shape="70.55,597.13 98.87,600.77 97.70,611.54 90.42,610.89 81.78,609.75 75.42,608.96 75.58,607.58 78.15,607.84 78.80,605.09 78.53,602.30 69.93,601.01 70.55,597.13" type="building"/>
   <poly color="red" fill="1" id="230551155" layer="-1.00" shape="137.93,189.93 138.05,188.32 138.42,183.53 143.81,166.07 148.18,161.25 151.06,163.62 155.19,168.87 152.64,171.50 147.72,187.44 147.46,190.80 137.93,189.93" type="building"/>
   <poly color="red" fill="1" id="230551159" layer="-1.00" shape="167.71,213.06 165.50,201.40 173.51,199.90 174.69,205.80 179.95,204.84 180.32,206.36 177.79,206.86 178.65,211.04 181.31,210.58 181.79,212.55 167.71,213.06" type="building"/>
   <poly color="red" fill="0" id="230847514" layer="-1.00" shape="456.31,808.26 456.37,806.43 456.54,804.18 456.70,802.74 456.90,799.60 456.98,798.31 471.72,799.14 471.17,805.57" type="building"/>
   <poly color="237,199,199" fill="1" id="23493947" layer="-1.00" shape="462.43,471.92 462.39,454.80 465.41,454.77 468.27,410.16 486.46,407.37 500.95,405.36 507.20,438.78 508.10,444.57 515.67,443.47 531.92,440.80 533.26,446.40 533.56,451.98 536.15,463.60 537.29,470.65 540.14,489.64 540.62,498.57 521.61,499.36 515.90,499.55 515.88,500.75 503.79,501.51 503.04,490.24 503.04,489.84 503.38,489.80 503.10,483.34 502.32,471.45 500.55,471.47 498.71,471.41 462.43,471.92" type="amenity"/>
   <poly color="red" fill="1" id="23493947#1" layer="-1.00" shape="462.43,471.92 462.39,454.80 465.41,454.77 468.27,410.16 486.46,407.37 500.95,405.36 507.20,438.78 508.10,444.57 515.67,443.47 531.92,440.80 533.26,446.40 533.56,451.98 536.15,463.60 537.29,470.65 540.14,489.64 540.62,498.57 521.61,499.36 515.90,499.55 515.88,500.75 503.79,501.51 503.04,490.24 503.04,489.84 503.38,489.80 503.10,483.34 502.32,471.45 500.55,471.47 498.71,471.41 462.43,471.92" type="building"/>
   <poly color="128,255,128" fill="1" id="23493947#2" layer="-1.00" shape="462.43,471.92 462.39,454.80 465.41,454.77 468.27,410.16 486.46,407.37 500.95,405.36 507.20,438.78 508.10,444.57 515.67,443.47 531.92,440.80 533.26,446.40 533.56,451.98 536.15,463.60 537.29,470.65 540.14,489.64 540.62,498.57 521.61,499.36 515.90,499.55 515.88,500.75 503.79,501.51 503.04,490.24 503.04,489.84 503.38,489.80 503.10,483.34 502.32,471.45 500.55,471.47 498.71,471.41 462.43,471.92" type="historic"/>
   <poly color="128,255,128" fill="1" id="23566794" layer="-1.00" shape="76.91,404.64 86.57,404.49 88.47,406.58 88.48,410.68 87.58,413.92 84.99,416.96 82.45,418.97 79.48,419.84 60.12,421.10 58.47,421.26 45.61,422.09 38.49,422.95 37.43,414.65 33.15,384.27 28.61,352.34 27.59,352.43 25.36,335.97 53.71,332.19 53.55,331.01 62.11,329.82 63.89,339.14 70.15,371.78 76.91,404.64" type="historic"/>
   <poly color="237,199,199" fill="0" id="23566809" layer="-1.00" shape="-2.94,427.23 -3.94,420.13 37.43,414.65 33.15,384.27 28.61,352.34 27.59,352.43 22.66,353.11" type="amenity"/>
   <poly color="red" fill="0" id="23566809#1" layer="-1.00" shape="-2.94,427.23 -3.94,420.13 37.43,414.65 33.15,384.27 28.61,352.34 27.59,352.43 22.66,353.11" type="building"/>
   <poly color="128,255,128" fill="0" id="23566809#2" layer="-1.00" shape="-2.94,427.23 -3.94,420.13 37.43,414.65 33.15,384.27 28.61,352.34 27.59,352.43 22.66,353.11" type="historic"/>
   <poly color="red" fill="1" id="23567654" layer="-1.00" shape="97.17,617.53 89.71,616.88 89.58,617.88 91.79,618.24 91.72,624.14 64.31,620.69 60.98,620.26 15.84,614.37 1.00,612.46 0.99,608.80 34.63,589.47 34.77,592.47 34.39,594.25 34.15,595.31 31.66,595.27 31.55,596.30 55.67,599.14 69.93,601.01 78.53,602.30 78.80,605.09 78.15,607.84 75.58,607.58 75.42,608.96 81.78,609.75 90.42,610.89 97.70,611.54 97.17,617.53" type="building"/>
   <poly color="red" fill="1" id="23567680" layer="-1.00" shape="36.46,449.55 36.18,446.21 35.95,438.22 53.60,437.65 53.89,454.28 50.55,454.40 50.35,453.19 46.54,453.56 45.84,448.34 36.46,449.55" type="building"/>
   <poly color="red" fill="1" id="23568054" layer="-1.00" shape="66.91,109.55 65.70,109.57 56.84,110.20 46.00,110.90 45.75,110.99 45.79,111.20 45.38,111.27 45.34,110.95 36.44,111.65 37.22,122.91 38.59,139.07 39.85,169.94 40.50,169.93 40.88,179.22 40.21,179.24 41.26,204.40 42.09,204.35 42.03,203.50 43.21,203.44 43.32,205.36 44.01,205.35 44.03,204.89 47.43,204.72 47.45,205.19 48.16,205.13 48.06,202.52 52.30,201.58 53.34,205.51 57.78,204.05 60.60,202.84 63.29,201.45 64.97,200.39 66.23,199.61 68.79,197.68 70.20,196.49 71.75,195.06 73.04,193.74 74.74,191.84 76.64,189.38 78.33,186.76 79.66,184.34 80.76,182.08 84.85,172.51 86.99,167.08 88.90,161.87 88.16,161.66 89.67,156.76 94.64,140.63 96.11,135.49 97.29,130.85 98.32,126.13 99.85,118.41 100.18,115.64 100.34,112.13 99.70,106.97 98.06,103.19 95.59,101.38 92.67,101.79 90.76,103.14 89.00,105.08 87.41,107.55 85.97,110.49 85.00,113.08 84.35,115.34 81.87,125.57 79.31,125.87 78.76,127.49 78.86,127.53 75.47,137.23 75.37,137.20 74.99,138.29 75.09,138.34 71.73,148.02 71.31,149.08 69.49,155.70 63.91,154.10 69.16,139.52 68.30,127.59 67.06,109.51 66.91,109.55" type="building"/>
   <poly color="red" fill="1" id="23573781" layer="-1.00" shape="66.87,722.93 71.43,685.38 64.16,684.54 65.35,674.00 50.59,672.31 52.79,652.13 54.65,635.60 58.55,636.23 61.78,636.75 91.55,640.24 89.74,653.27 95.06,653.74 93.85,664.09 92.95,671.68 86.88,725.06 80.76,724.58 66.87,722.93" type="building"/>
   <poly color="red" fill="1" id="23574173" layer="-1.00" shape="129.06,674.50 129.21,673.50 128.68,673.46 130.16,655.27 144.10,656.33 142.55,674.55 141.93,674.50 141.98,675.50 129.06,674.50" type="building"/>
   <poly color="237,199,199" fill="1" id="23574603" layer="-1.00" shape="209.49,617.01 209.39,616.68 207.11,616.97 207.16,617.34 206.54,617.42 200.52,575.30 200.19,572.92 200.02,572.14 198.49,561.71 199.02,560.99 198.95,560.63 199.25,560.58 198.70,556.28 243.91,549.97 245.28,549.79 246.09,555.66 255.52,554.26 259.43,581.08 262.31,599.77 262.30,600.43 263.59,609.30 263.03,609.38 262.94,609.04 260.83,609.34 260.87,609.69 260.16,609.79 260.06,609.45 258.00,609.77 258.04,610.10 257.27,610.21 257.20,609.88 255.14,610.18 255.15,610.50 254.50,610.61 254.41,610.28 252.39,610.57 252.43,610.90 251.74,611.00 251.65,610.68 249.75,610.95 249.74,611.27 249.00,611.37 248.90,611.07 246.89,611.38 246.85,611.69 246.13,611.80 246.05,611.50 244.04,611.79 244.01,612.09 243.25,612.20 243.15,611.91 241.32,612.18 241.30,612.49 240.66,612.56 240.56,612.30 238.42,612.60 238.39,612.89 237.76,612.99 237.70,612.71 235.60,613.01 235.61,613.28 234.91,613.39 234.81,613.12 232.69,613.44 232.72,613.69 232.12,613.79 232.03,613.53 229.80,613.86 229.84,614.11 229.16,614.20 229.07,613.97 227.06,614.26 226.99,614.52 226.35,614.60 226.27,614.37 224.16,614.68 224.14,614.92 223.53,615.01 223.43,614.77 221.42,615.09 221.47,615.30 220.76,615.40 220.68,615.18 219.81,615.31 218.60,615.49 218.65,615.70 217.95,615.82 217.90,615.52 215.82,615.80 215.80,616.11 215.14,616.21 215.06,615.90 212.91,616.19 212.95,616.51 212.38,616.59 212.29,616.27 210.04,616.58 210.08,616.92 209.49,617.01" type="amenity"/>