<?xml version="1.0" encoding="utf-8"?><!-- generated on 10/11/17 17:55:45 by SUMO netconvert Version 0.25.0
<?xml version="1.0" encoding="UTF-8"?>

<configuration xmlns:xsi="http://www.w3.org/2001/XMLSchema-instance" xsi:noNamespaceSchemaLocation="http://sumo.dlr.de/xsd/netconvertConfiguration.xsd">

    <input>
        <type-files value="osmNetconvert.typ.xml"/>
        <osm-files value="K_Egelspfad_urban_800.osm"/>
    </input>

    <output>
        <output-file value="K_Egelspfad_urban_800.net.xml"/>
    </output>

    <projection>
        <proj.utm value="true"/>
    </projection>

    <edge_removal>
        <remove-edges.by-type value="highway.track,highway.unsurfaced,highway.raceway,highway.bridleway,highway.path,highway.footway,highway.pedestrian,highway.cycleway,highway.step,highway.steps,highway.stairs,highway.bus_guideway,highway.ford,railway.rail,railway.tram,railway.light_rail,railway.subway,railway.preserved,railway.narrow_gauge,railway.monorail,railway.funicular"/>
    </edge_removal>

</configuration>
-->
<net version="0.25">
   <location convBoundary="0.00,0.00,870.64,824.35" netOffset="-349034.27,-5645899.99" origBoundary="6.850854,50.944913,6.863901,50.952485" projParameter="+proj=utm +zone=32 +ellps=WGS84 +datum=WGS84 +units=m +no_defs"/>
   <type allow="pedestrian" id="highway.bridleway" numLanes="1" oneway="1" priority="1" speed="2.78" width="2.00"/>
   <type allow="bus" id="highway.bus_guideway" numLanes="1" oneway="1" priority="1" speed="8.33"/>
   <type allow="bicycle" id="highway.cycleway" numLanes="1" oneway="0" priority="1" speed="5.56" width="1.00"/>
   <type allow="pedestrian" id="highway.footway" numLanes="1" oneway="1" priority="1" speed="8.33" width="2.00"/>
   <type allow="army" id="highway.ford" numLanes="1" oneway="0" priority="1" speed="2.78"/>
   <type disallow="tram rail_urban rail rail_electric ship" id="highway.living_street" numLanes="1" oneway="0" priority="3" speed="2.78"/>
   <type allow="private emergency authority army vip passenger hov taxi bus coach delivery truck trailer motorcycle evehicle custom1 custom2" id="highway.motorway" numLanes="2" oneway="1" priority="13" speed="44.44"/>
   <type allow="private emergency authority army vip passenger hov taxi bus coach delivery truck trailer motorcycle evehicle custom1 custom2" id="highway.motorway_link" numLanes="1" oneway="1" priority="12" speed="22.22"/>
   <type allow="bicycle pedestrian" id="highway.path" numLanes="1" oneway="1" priority="1" speed="2.78" width="2.00"/>
   <type allow="pedestrian" id="highway.pedestrian" numLanes="1" oneway="1" priority="1" speed="8.33" width="2.00"/>
   <type disallow="tram rail_urban rail rail_electric ship" id="highway.primary" numLanes="2" oneway="0" priority="9" speed="27.78"/>
   <type disallow="tram rail_urban rail rail_electric ship" id="highway.primary_link" numLanes="1" oneway="0" priority="8" speed="22.22"/>
   <type allow="vip" id="highway.raceway" numLanes="2" oneway="0" priority="14" speed="83.33"/>
   <type disallow="tram rail_urban rail rail_electric ship" id="highway.residential" numLanes="1" oneway="0" priority="4" speed="13.89"/>
   <type disallow="tram rail_urban rail rail_electric ship" id="highway.secondary" numLanes="2" oneway="0" priority="7" speed="27.78"/>
   <type disallow="tram rail_urban rail rail_electric ship" id="highway.secondary_link" numLanes="1" oneway="0" priority="6" speed="22.22"/>
   <type allow="delivery bicycle pedestrian" id="highway.service" numLanes="1" oneway="0" priority="2" speed="5.56"/>
   <type disallow="tram rail_urban rail rail_electric ship" id="highway.services" numLanes="1" oneway="0" priority="1" speed="8.33"/>
   <type allow="pedestrian" id="highway.stairs" numLanes="1" oneway="1" priority="1" speed="1.39" width="2.00"/>
   <type allow="pedestrian" id="highway.step" numLanes="1" oneway="1" priority="1" speed="1.39" width="2.00"/>
   <type allow="pedestrian" id="highway.steps" numLanes="1" oneway="1" priority="1" speed="1.39" width="2.00"/>
   <type disallow="tram rail_urban rail rail_electric ship" id="highway.tertiary" numLanes="1" oneway="0" priority="6" speed="22.22"/>
   <type disallow="tram rail_urban rail rail_electric ship" id="highway.tertiary_link" numLanes="1" oneway="0" priority="5" speed="22.22"/>
   <type disallow="tram rail_urban rail rail_electric ship" id="highway.track" numLanes="1" oneway="0" priority="1" speed="5.56"/>
   <type disallow="tram rail_urban rail rail_electric bicycle pedestrian ship" id="highway.trunk" numLanes="2" oneway="0" priority="11" speed="27.78"/>
   <type disallow="tram rail_urban rail rail_electric bicycle pedestrian ship" id="highway.trunk_link" numLanes="1" oneway="0" priority="10" speed="22.22"/>
   <type disallow="tram rail_urban rail rail_electric ship" id="highway.unclassified" numLanes="1" oneway="0" priority="5" speed="13.89"/>
   <type disallow="tram rail_urban rail rail_electric ship" id="highway.unsurfaced" numLanes="1" oneway="0" priority="1" speed="8.33"/>
   <type allow="rail_urban" id="railway.light_rail" numLanes="1" oneway="1" priority="15" speed="27.78"/>
   <type allow="rail" id="railway.preserved" numLanes="1" oneway="1" priority="15" speed="27.78"/>
   <type allow="rail rail_electric" id="railway.rail" numLanes="1" oneway="1" priority="15" speed="83.33"/>
   <type allow="rail_urban" id="railway.subway" numLanes="1" oneway="1" priority="15" speed="27.78"/>
   <type allow="tram" id="railway.tram" numLanes="1" oneway="1" priority="15" speed="13.89"/>
   <edge function="internal" id=":1238685612_0">
      <lane disallow="tram rail_urban rail rail_electric ship" id=":1238685612_0_0" index="0" length="0.10" shape="93.26,726.46 93.26,726.46" speed="13.89"/>
   </edge>
   <edge function="internal" id=":1238685612_1">
      <lane disallow="tram rail_urban rail rail_electric ship" id=":1238685612_1_0" index="0" length="2.41" shape="93.26,726.46 94.06,725.21 94.88,724.79" speed="13.89"/>
   </edge>
   <edge function="internal" id=":1238685612_4">
      <lane id=":1238685612_4_0" index="0" length="2.41" shape="94.88,724.79 95.71,725.19 96.56,726.41" speed="13.89"/>
   </edge>
   <edge function="internal" id=":1238685612_2">
      <lane disallow="tram rail_urban rail rail_electric ship" id=":1238685612_2_0" index="0" length="0.10" shape="96.56,726.41 96.56,726.41" speed="13.89"/>
   </edge>
   <edge function="internal" id=":1238685612_3">
      <lane disallow="tram rail_urban rail rail_electric ship" id=":1238685612_3_0" index="0" length="2.41" shape="96.56,726.41 95.75,727.66 94.93,728.09" speed="13.89"/>
   </edge>
   <edge function="internal" id=":1238685612_5">
      <lane id=":1238685612_5_0" index="0" length="2.41" shape="94.93,728.09 94.10,727.69 93.26,726.46" speed="13.89"/>
   </edge>
   <edge function="internal" id=":1630265447_0">
      <lane disallow="tram rail_urban rail rail_electric ship" id=":1630265447_0_0" index="0" length="4.82" shape="75.22,-0.71 76.49,-1.47 77.41,-1.49 77.98,-0.77 78.20,0.71" speed="13.89"/>
   </edge>
   <edge function="internal" id=":244123550_0">
      <lane disallow="tram rail_urban rail rail_electric ship" id=":244123550_0_0" index="0" length="2.90" shape="95.87,735.24 92.94,734.90" speed="13.89"/>
      <lane disallow="tram rail_urban rail rail_electric ship" id=":244123550_0_1" index="1" length="2.90" shape="96.20,731.95 93.37,731.63" speed="13.89"/>
   </edge>
   <edge function="internal" id=":244123550_2">
      <lane disallow="tram rail_urban rail rail_electric ship" id=":244123550_2_0" index="0" length="3.63" shape="96.20,731.95 94.94,731.64 94.04,731.00 93.49,730.02 93.48,729.91" speed="13.89"/>
   </edge>
   <edge function="internal" id=":244123550_3">
      <lane disallow="tram rail_urban rail rail_electric ship" id=":244123550_3_0" index="0" length="2.41" shape="96.20,731.95 95.05,731.01 94.72,730.15" speed="13.89"/>
   </edge>
   <edge function="internal" id=":244123550_11">
      <lane id=":244123550_11_0" index="0" length="1.23" shape="93.48,729.91 93.29,728.70" speed="13.89"/>
   </edge>
   <edge function="internal" id=":244123550_12">
      <lane id=":244123550_12_0" index="0" length="2.41" shape="94.72,730.15 95.21,729.37 96.52,728.67" speed="13.89"/>
   </edge>
   <edge function="internal" id=":244123550_4">
      <lane disallow="tram rail_urban rail rail_electric ship" id=":244123550_4_0" index="0" length="2.73" shape="96.58,728.05 97.41,725.44" speed="13.89"/>
   </edge>
   <edge function="internal" id=":244123550_5">
      <lane disallow="tram rail_urban rail rail_electric ship" id=":244123550_5_0" index="0" length="5.67" shape="96.58,728.05 96.40,729.77 95.81,730.95 94.80,731.56 93.37,731.63" speed="13.89"/>
   </edge>
   <edge function="internal" id=":244123550_6">
      <lane disallow="tram rail_urban rail rail_electric ship" id=":244123550_6_0" index="0" length="4.90" shape="96.58,728.05 96.00,729.44 95.26,730.02 94.36,729.77 93.29,728.70" speed="13.89"/>
   </edge>
   <edge function="internal" id=":244123550_7">
      <lane disallow="tram rail_urban rail rail_electric ship" id=":244123550_7_0" index="0" length="3.71" shape="93.64,725.01 93.29,728.70" speed="13.89"/>
   </edge>
   <edge function="internal" id=":244123550_8">
      <lane disallow="tram rail_urban rail rail_electric ship" id=":244123550_8_0" index="0" length="4.17" shape="93.64,725.01 97.41,725.44" speed="13.89"/>
      <lane disallow="tram rail_urban rail rail_electric ship" id=":244123550_8_1" index="1" length="4.17" shape="92.01,728.12 96.52,728.67" speed="13.89"/>
   </edge>
   <edge function="internal" id=":244123550_10">
      <lane disallow="tram rail_urban rail rail_electric ship" id=":244123550_10_0" index="0" length="3.68" shape="92.01,728.12 93.66,728.49 94.44,729.20 94.35,730.13" speed="13.89"/>
   </edge>
   <edge function="internal" id=":244123550_13">
      <lane id=":244123550_13_0" index="0" length="1.81" shape="94.35,730.13 94.34,730.24 93.37,731.63" speed="13.89"/>
   </edge>
   <edge function="internal" id=":248968788_0">
      <lane disallow="tram rail_urban rail rail_electric ship" id=":248968788_0_0" index="0" length="7.65" shape="1.38,352.29 -0.04,350.77 -0.66,349.14 -0.48,347.41 0.51,345.57" speed="13.89"/>
   </edge>
   <edge function="internal" id=":248968788_1">
      <lane disallow="tram rail_urban rail rail_electric ship" id=":248968788_1_0" index="0" length="2.81" shape="1.38,352.29 0.94,350.87 1.13,349.97 1.50,349.80" speed="13.89"/>
   </edge>
   <edge function="internal" id=":248968788_4">
      <lane id=":248968788_4_0" index="0" length="2.01" shape="1.50,349.80 1.97,349.59 3.45,349.72" speed="13.89"/>
   </edge>
   <edge function="internal" id=":248968788_2">
      <lane disallow="tram rail_urban rail rail_electric ship" id=":248968788_2_0" index="0" length="2.50" shape="3.17,347.53 2.85,348.13 2.79,348.69 2.99,349.22 3.45,349.72" speed="13.89"/>
   </edge>
   <edge function="internal" id=":248968788_3">
      <lane disallow="tram rail_urban rail rail_electric ship" id=":248968788_3_0" index="0" length="2.19" shape="3.17,347.53 1.77,348.04 1.08,347.92" speed="13.89"/>
   </edge>
   <edge function="internal" id=":248968788_5">
      <lane id=":248968788_5_0" index="0" length="2.63" shape="1.08,347.92 0.86,347.88 0.44,347.06 0.51,345.57" speed="13.89"/>
   </edge>
   <edge function="internal" id=":248968789_0">
      <lane disallow="tram rail_urban rail rail_electric ship" id=":248968789_0_0" index="0" length="0.10" shape="87.85,352.45 87.85,352.45" speed="8.33"/>
   </edge>
   <edge function="internal" id=":248968789_1">
      <lane disallow="tram rail_urban rail rail_electric ship" id=":248968789_1_0" index="0" length="2.41" shape="87.85,352.45 88.46,351.09 89.20,350.55" speed="8.33"/>
   </edge>
   <edge function="internal" id=":248968789_4">
      <lane id=":248968789_4_0" index="0" length="2.41" shape="89.20,350.55 90.08,350.82 91.11,351.90" speed="8.33"/>
   </edge>
   <edge function="internal" id=":248968789_2">
      <lane disallow="tram rail_urban rail rail_electric ship" id=":248968789_2_0" index="0" length="0.10" shape="91.11,351.95 91.11,351.90" speed="8.33"/>
   </edge>
   <edge function="internal" id=":248968789_3">
      <lane disallow="tram rail_urban rail rail_electric ship" id=":248968789_3_0" index="0" length="2.41" shape="91.11,351.95 90.48,353.30 89.73,353.83" speed="8.33"/>
   </edge>
   <edge function="internal" id=":248968789_5">
      <lane id=":248968789_5_0" index="0" length="2.41" shape="89.73,353.83 88.85,353.55 87.85,352.45" speed="8.33"/>
   </edge>
   <edge function="internal" id=":248968793_0">
      <lane disallow="tram rail_urban rail rail_electric ship" id=":248968793_0_0" index="0" length="0.10" shape="827.72,204.34 827.72,204.34" speed="8.33"/>
   </edge>
   <edge function="internal" id=":249066583_0">
      <lane disallow="tram rail_urban rail rail_electric ship" id=":249066583_0_0" index="0" length="9.77" shape="828.36,816.61 818.59,815.63" speed="13.89"/>
      <lane disallow="tram rail_urban rail rail_electric ship" id=":249066583_0_1" index="1" length="9.77" shape="828.64,813.32 818.96,812.35" speed="13.89"/>
   </edge>
   <edge function="internal" id=":249066583_2">
      <lane disallow="tram rail_urban rail rail_electric ship" id=":249066583_2_0" index="0" length="4.69" shape="828.64,813.32 825.76,812.45 824.63,811.21" speed="11.11"/>
   </edge>
   <edge function="internal" id=":249066583_3">
      <lane disallow="tram rail_urban rail rail_electric ship" id=":249066583_3_0" index="0" length="2.41" shape="828.64,813.32 827.48,812.39 827.14,811.54" speed="13.89"/>
   </edge>
   <edge function="internal" id=":249066583_11">
      <lane id=":249066583_11_0" index="0" length="8.73" shape="824.63,811.21 823.90,810.42 823.05,807.23 823.21,802.88" speed="11.11"/>
   </edge>
   <edge function="internal" id=":249066583_12">
      <lane id=":249066583_12_0" index="0" length="2.41" shape="827.14,811.54 827.63,810.75 828.93,810.04" speed="13.89"/>
   </edge>
   <edge function="internal" id=":249066583_4">
      <lane disallow="tram rail_urban rail rail_electric ship" id=":249066583_4_0" index="0" length="5.06" shape="826.48,803.32 826.49,804.72 826.95,805.75 827.86,806.43 829.22,806.75" speed="11.11"/>
   </edge>
   <edge function="internal" id=":249066583_5">
      <lane disallow="tram rail_urban rail rail_electric ship" id=":249066583_5_0" index="0" length="13.15" shape="826.48,803.32 825.51,807.54 823.94,810.45 821.76,812.06 818.96,812.35" speed="11.11"/>
   </edge>
   <edge function="internal" id=":249066583_6">
      <lane disallow="tram rail_urban rail rail_electric ship" id=":249066583_6_0" index="0" length="4.82" shape="826.48,803.32 825.49,804.44 824.62,804.74 823.86,804.22 823.21,802.88" speed="8.33"/>
   </edge>
   <edge function="internal" id=":249066583_7">
      <lane disallow="tram rail_urban rail rail_electric ship" id=":249066583_7_0" index="0" length="5.16" shape="819.72,805.80 821.08,805.75 822.11,805.24 822.82,804.29 823.21,802.88" speed="11.11"/>
   </edge>
   <edge function="internal" id=":249066583_8">
      <lane disallow="tram rail_urban rail rail_electric ship" id=":249066583_8_0" index="0" length="9.59" shape="819.72,805.80 829.22,806.75" speed="13.89"/>
      <lane disallow="tram rail_urban rail rail_electric ship" id=":249066583_8_1" index="1" length="9.59" shape="819.34,809.08 828.93,810.04" speed="13.89"/>
   </edge>
   <edge function="internal" id=":249066583_10">
      <lane disallow="tram rail_urban rail rail_electric ship" id=":249066583_10_0" index="0" length="2.41" shape="819.34,809.08 820.48,810.04 820.79,810.90" speed="13.89"/>
   </edge>
   <edge function="internal" id=":249066583_13">
      <lane id=":249066583_13_0" index="0" length="2.41" shape="820.79,810.90 820.29,811.68 818.96,812.35" speed="13.89"/>
   </edge>
   <edge function="internal" id=":249066587_0">
      <lane disallow="tram rail_urban rail rail_electric ship" id=":249066587_0_0" index="0" length="5.45" shape="220.09,44.85 218.72,44.88 217.66,45.42 216.92,46.47 216.51,48.02" speed="8.33"/>
   </edge>
   <edge function="internal" id=":249066587_1">
      <lane disallow="tram rail_urban rail rail_electric ship" id=":249066587_1_0" index="0" length="9.78" shape="220.09,44.85 210.33,44.29" speed="8.33"/>
   </edge>
   <edge function="internal" id=":249066587_2">
      <lane disallow="tram rail_urban rail rail_electric ship" id=":249066587_2_0" index="0" length="4.82" shape="220.09,44.85 218.99,43.86 218.70,42.98 219.23,42.23 220.57,41.59" speed="8.33"/>
   </edge>
   <edge function="internal" id=":249066587_3">
      <lane disallow="tram rail_urban rail rail_electric ship" id=":249066587_3_0" index="0" length="10.35" shape="210.26,40.99 213.28,40.94 215.44,40.98 217.58,41.17 220.57,41.59" speed="8.33"/>
   </edge>
   <edge function="internal" id=":249066587_4">
      <lane disallow="tram rail_urban rail rail_electric ship" id=":249066587_4_0" index="0" length="11.17" shape="210.26,40.99 213.37,41.37 215.45,42.67 216.50,44.89 216.51,48.02" speed="8.33"/>
   </edge>
   <edge function="internal" id=":249066587_5">
      <lane disallow="tram rail_urban rail rail_electric ship" id=":249066587_5_0" index="0" length="4.82" shape="210.26,40.99 211.51,41.79 211.94,42.61 211.55,43.44 210.33,44.29" speed="8.33"/>
   </edge>
   <edge function="internal" id=":249066587_6">
      <lane disallow="tram rail_urban rail rail_electric ship" id=":249066587_6_0" index="0" length="5.20" shape="213.24,47.57 213.24,46.11 212.75,45.07 211.78,44.47 210.33,44.29" speed="8.33"/>
   </edge>
   <edge function="internal" id=":249066587_7">
      <lane disallow="tram rail_urban rail rail_electric ship" id=":249066587_7_0" index="0" length="10.80" shape="213.24,47.57 214.06,44.60 215.56,42.62 217.73,41.61 220.57,41.59" speed="8.33"/>
   </edge>
   <edge function="internal" id=":249066587_8">
      <lane disallow="tram rail_urban rail rail_electric ship" id=":249066587_8_0" index="0" length="4.82" shape="213.24,47.57 214.23,46.45 215.10,46.16 215.86,46.68 216.51,48.02" speed="8.33"/>
   </edge>
   <edge function="internal" id=":249066588_0">
      <lane disallow="tram rail_urban rail rail_electric ship" id=":249066588_0_0" index="0" length="5.92" shape="125.82,61.48 124.62,61.92 123.69,62.82 123.03,64.17 122.65,65.97" speed="8.33"/>
   </edge>
   <edge function="internal" id=":249066588_1">
      <lane disallow="tram rail_urban rail rail_electric ship" id=":249066588_1_0" index="0" length="9.46" shape="125.82,61.48 116.40,62.37" speed="8.33"/>
   </edge>
   <edge function="internal" id=":249066588_2">
      <lane disallow="tram rail_urban rail rail_electric ship" id=":249066588_2_0" index="0" length="4.82" shape="125.82,61.48 124.46,60.86 123.93,60.11 124.20,59.23 125.29,58.22" speed="8.33"/>
   </edge>
   <edge function="internal" id=":249066588_3">
      <lane disallow="tram rail_urban rail rail_electric ship" id=":249066588_3_0" index="0" length="9.09" shape="116.24,59.07 125.29,58.22" speed="8.33"/>
   </edge>
   <edge function="internal" id=":249066588_4">
      <lane disallow="tram rail_urban rail rail_electric ship" id=":249066588_4_0" index="0" length="11.20" shape="116.24,59.07 119.38,59.38 121.49,60.63 122.58,62.83 122.65,65.97" speed="8.33"/>
   </edge>
   <edge function="internal" id=":249066588_5">
      <lane disallow="tram rail_urban rail rail_electric ship" id=":249066588_5_0" index="0" length="4.82" shape="116.24,59.07 117.52,59.84 117.97,60.64 117.59,61.49 116.40,62.37" speed="8.33"/>
   </edge>
   <edge function="internal" id=":249066588_6">
      <lane disallow="tram rail_urban rail rail_electric ship" id=":249066588_6_0" index="0" length="5.21" shape="119.38,65.58 119.34,64.12 118.83,63.09 117.85,62.51 116.40,62.37" speed="8.33"/>
   </edge>
   <edge function="internal" id=":249066588_7">
      <lane disallow="tram rail_urban rail rail_electric ship" id=":249066588_7_0" index="0" length="10.20" shape="119.38,65.58 120.04,62.67 121.25,60.47 123.00,58.99 125.29,58.22" speed="8.33"/>
   </edge>
   <edge function="internal" id=":249066588_8">
      <lane disallow="tram rail_urban rail rail_electric ship" id=":249066588_8_0" index="0" length="4.82" shape="119.38,65.58 120.34,64.45 121.21,64.14 121.98,64.65 122.65,65.97" speed="8.33"/>
   </edge>
   <edge function="internal" id=":249066590_0">
      <lane disallow="tram rail_urban rail rail_electric ship" id=":249066590_0_0" index="0" length="5.43" shape="60.39,53.11 58.80,52.92 57.55,53.20 56.64,53.96 56.06,55.19" speed="11.11"/>
   </edge>
   <edge function="internal" id=":249066590_1">
      <lane disallow="tram rail_urban rail rail_electric ship" id=":249066590_1_0" index="0" length="11.01" shape="60.39,53.11 57.54,51.97 55.87,50.20 55.38,47.82 56.07,44.83" speed="11.11"/>
   </edge>
   <edge function="internal" id=":249066590_2">
      <lane disallow="tram rail_urban rail rail_electric ship" id=":249066590_2_0" index="0" length="4.82" shape="60.39,53.11 59.38,52.02 59.18,51.12 59.77,50.42 61.17,49.91" speed="8.33"/>
   </edge>
   <edge function="internal" id=":249066590_3">
      <lane disallow="tram rail_urban rail rail_electric ship" id=":249066590_3_0" index="0" length="5.16" shape="59.14,46.02 58.82,47.43 59.05,48.54 59.83,49.37 61.17,49.91" speed="11.11"/>
   </edge>
   <edge function="internal" id=":249066590_4">
      <lane disallow="tram rail_urban rail rail_electric ship" id=":249066590_4_0" index="0" length="9.67" shape="59.14,46.02 56.06,55.19" speed="13.89"/>
   </edge>
   <edge function="internal" id=":249066590_5">
      <lane disallow="tram rail_urban rail rail_electric ship" id=":249066590_5_0" index="0" length="2.41" shape="59.14,46.02 57.93,46.88 57.01,46.96" speed="13.89"/>
   </edge>
   <edge function="internal" id=":249066590_9">
      <lane id=":249066590_9_0" index="0" length="2.41" shape="57.01,46.96 56.39,46.28 56.07,44.83" speed="13.89"/>
   </edge>
   <edge function="internal" id=":249066590_6">
      <lane disallow="tram rail_urban rail rail_electric ship" id=":249066590_6_0" index="0" length="9.99" shape="52.88,54.30 56.07,44.83" speed="13.89"/>
   </edge>
   <edge function="internal" id=":249066590_7">
      <lane disallow="tram rail_urban rail rail_electric ship" id=":249066590_7_0" index="0" length="5.43" shape="52.88,54.30 54.03,51.77 55.80,50.20 56.07,50.13" speed="11.11"/>
   </edge>
   <edge function="internal" id=":249066590_8">
      <lane disallow="tram rail_urban rail rail_electric ship" id=":249066590_8_0" index="0" length="2.55" shape="52.88,54.30 54.01,53.33 54.92,53.15 55.02,53.25" speed="13.89"/>
   </edge>
   <edge function="internal" id=":249066590_10">
      <lane id=":249066590_10_0" index="0" length="5.19" shape="56.07,50.13 58.18,49.58 61.17,49.91" speed="11.11"/>
   </edge>
   <edge function="internal" id=":249066590_11">
      <lane id=":249066590_11_0" index="0" length="2.27" shape="55.02,53.25 55.60,53.77 56.06,55.19" speed="13.89"/>
   </edge>
   <edge function="internal" id=":249066599_0">
      <lane disallow="tram rail_urban rail rail_electric ship" id=":249066599_0_0" index="0" length="9.44" shape="419.30,704.81 409.93,703.64" speed="8.33"/>
   </edge>
   <edge function="internal" id=":249066599_1">
      <lane disallow="tram rail_urban rail rail_electric ship" id=":249066599_1_0" index="0" length="10.29" shape="419.30,704.81 416.60,704.05 414.78,702.60 413.83,700.47 413.76,697.64" speed="8.33"/>
   </edge>
   <edge function="internal" id=":249066599_2">
      <lane disallow="tram rail_urban rail rail_electric ship" id=":249066599_2_0" index="0" length="4.82" shape="419.30,704.81 418.18,703.83 417.87,702.96 418.39,702.19 419.73,701.53" speed="8.33"/>
   </edge>
   <edge function="internal" id=":249066599_3">
      <lane disallow="tram rail_urban rail rail_electric ship" id=":249066599_3_0" index="0" length="5.03" shape="417.04,698.02 417.07,699.41 417.53,700.46 418.41,701.16 419.73,701.53" speed="8.33"/>
   </edge>
   <edge function="internal" id=":249066599_4">
      <lane disallow="tram rail_urban rail rail_electric ship" id=":249066599_4_0" index="0" length="10.34" shape="417.04,698.02 416.31,700.76 414.89,702.61 412.76,703.57 409.93,703.64" speed="8.33"/>
   </edge>
   <edge function="internal" id=":249066599_5">
      <lane disallow="tram rail_urban rail rail_electric ship" id=":249066599_5_0" index="0" length="4.82" shape="417.04,698.02 416.07,699.16 415.21,699.47 414.43,698.97 413.76,697.64" speed="8.33"/>
   </edge>
   <edge function="internal" id=":249066599_6">
      <lane disallow="tram rail_urban rail rail_electric ship" id=":249066599_6_0" index="0" length="5.00" shape="410.32,700.36 411.69,700.33 412.72,699.86 413.41,698.97 413.76,697.64" speed="8.33"/>
   </edge>
   <edge function="internal" id=":249066599_7">
      <lane disallow="tram rail_urban rail rail_electric ship" id=":249066599_7_0" index="0" length="9.48" shape="410.32,700.36 419.73,701.53" speed="8.33"/>
   </edge>
   <edge function="internal" id=":249066599_8">
      <lane disallow="tram rail_urban rail rail_electric ship" id=":249066599_8_0" index="0" length="4.82" shape="410.32,700.36 411.45,701.33 411.76,702.19 411.25,702.96 409.93,703.64" speed="8.33"/>
   </edge>
   <edge function="internal" id=":249066602_0">
      <lane disallow="tram rail_urban rail rail_electric ship" id=":249066602_0_0" index="0" length="4.99" shape="311.34,58.17 309.97,58.19 308.94,58.64 308.23,59.53 307.85,60.84" speed="8.33"/>
   </edge>
   <edge function="internal" id=":249066602_1">
      <lane disallow="tram rail_urban rail rail_electric ship" id=":249066602_1_0" index="0" length="9.47" shape="311.34,58.17 301.95,56.88" speed="8.33"/>
   </edge>
   <edge function="internal" id=":249066602_2">
      <lane disallow="tram rail_urban rail rail_electric ship" id=":249066602_2_0" index="0" length="4.82" shape="311.34,58.17 310.22,57.20 309.91,56.33 310.43,55.56 311.76,54.90" speed="8.33"/>
   </edge>
   <edge function="internal" id=":249066602_3">
      <lane disallow="tram rail_urban rail rail_electric ship" id=":249066602_3_0" index="0" length="9.42" shape="302.43,53.61 311.76,54.90" speed="8.33"/>
   </edge>
   <edge function="internal" id=":249066602_4">
      <lane disallow="tram rail_urban rail rail_electric ship" id=":249066602_4_0" index="0" length="10.29" shape="302.43,53.61 305.13,54.41 306.94,55.88 307.84,58.02 307.85,60.84" speed="8.33"/>
   </edge>
   <edge function="internal" id=":249066602_5">
      <lane disallow="tram rail_urban rail rail_electric ship" id=":249066602_5_0" index="0" length="4.82" shape="302.43,53.61 303.54,54.61 303.83,55.48 303.30,56.24 301.95,56.88" speed="8.33"/>
   </edge>
   <edge function="internal" id=":249066602_6">
      <lane disallow="tram rail_urban rail rail_electric ship" id=":249066602_6_0" index="0" length="4.99" shape="304.58,60.38 304.58,59.02 304.14,57.98 303.26,57.26 301.95,56.88" speed="8.33"/>
   </edge>
   <edge function="internal" id=":249066602_7">
      <lane disallow="tram rail_urban rail rail_electric ship" id=":249066602_7_0" index="0" length="10.28" shape="304.58,60.38 305.36,57.68 306.82,55.86 308.95,54.94 311.76,54.90" speed="8.33"/>
   </edge>
   <edge function="internal" id=":249066602_8">
      <lane disallow="tram rail_urban rail rail_electric ship" id=":249066602_8_0" index="0" length="4.82" shape="304.58,60.38 305.57,59.27 306.45,58.98 307.21,59.50 307.85,60.84" speed="8.33"/>
   </edge>
   <edge function="internal" id=":249066603_0">
      <lane disallow="tram rail_urban rail rail_electric ship" id=":249066603_0_0" index="0" length="9.49" shape="274.33,318.76 264.94,317.46" speed="8.33"/>
   </edge>
   <edge function="internal" id=":249066603_1">
      <lane disallow="tram rail_urban rail rail_electric ship" id=":249066603_1_0" index="0" length="10.33" shape="274.33,318.76 271.61,317.98 269.80,316.51 268.89,314.36 268.88,311.53" speed="8.33"/>
   </edge>
   <edge function="internal" id=":249066603_2">
      <lane disallow="tram rail_urban rail rail_electric ship" id=":249066603_2_0" index="0" length="4.82" shape="274.33,318.76 273.22,317.77 272.93,316.90 273.45,316.14 274.79,315.50" speed="8.33"/>
   </edge>
   <edge function="internal" id=":249066603_3">
      <lane disallow="tram rail_urban rail rail_electric ship" id=":249066603_3_0" index="0" length="5.00" shape="272.15,311.99 272.15,313.36 272.59,314.40 273.47,315.12 274.79,315.50" speed="8.33"/>
   </edge>
   <edge function="internal" id=":249066603_4">
      <lane disallow="tram rail_urban rail rail_electric ship" id=":249066603_4_0" index="0" length="10.32" shape="272.15,311.99 271.36,314.71 269.90,316.53 267.76,317.44 264.94,317.46" speed="8.33"/>
   </edge>
   <edge function="internal" id=":249066603_5">
      <lane disallow="tram rail_urban rail rail_electric ship" id=":249066603_5_0" index="0" length="4.82" shape="272.15,311.99 271.16,313.10 270.29,313.40 269.53,312.87 268.88,311.53" speed="8.33"/>
   </edge>
   <edge function="internal" id=":249066603_6">
      <lane disallow="tram rail_urban rail rail_electric ship" id=":249066603_6_0" index="0" length="5.01" shape="265.38,314.19 266.75,314.18 267.79,313.74 268.50,312.85 268.88,311.53" speed="8.33"/>
   </edge>
   <edge function="internal" id=":249066603_7">
      <lane disallow="tram rail_urban rail rail_electric ship" id=":249066603_7_0" index="0" length="9.50" shape="265.38,314.19 274.79,315.50" speed="8.33"/>
   </edge>
   <edge function="internal" id=":249066603_8">
      <lane disallow="tram rail_urban rail rail_electric ship" id=":249066603_8_0" index="0" length="4.82" shape="265.38,314.19 266.50,315.18 266.79,316.05 266.27,316.81 264.94,317.46" speed="8.33"/>
   </edge>
   <edge function="internal" id=":249066604_0">
      <lane disallow="tram rail_urban rail rail_electric ship" id=":249066604_0_0" index="0" length="5.04" shape="95.33,294.18 93.93,294.18 92.88,294.62 92.16,295.50 91.77,296.82" speed="8.33"/>
   </edge>
   <edge function="internal" id=":249066604_1">