<?xml version="1.0" encoding="utf-8"?><!-- generated on 10/11/17 17:55:49 by SUMO polyconvert Version 0.25.0
<?xml version="1.0" encoding="UTF-8"?>

<configuration xmlns:xsi="http://www.w3.org/2001/XMLSchema-instance" xsi:noNamespaceSchemaLocation="http://sumo.dlr.de/xsd/polyconvertConfiguration.xsd">

    <input>
        <net-file value="K_Egelspfad_urban_800.net.xml"/>
        <osm-files value="K_Egelspfad_urban_800.osm"/>
        <type-file value="osmPolyconvert.typ.xml"/>
    </input>

    <output>
        <output-file value="K_Egelspfad_urban_800.poly.xml"/>
    </output>

    <projection>
        <proj.utm value="true"/>
    </projection>

    <processing>
        <poi-layer-offset value="5"/>
    </processing>

</configuration>
-->
<additional>
   <location convBoundary="-6.94,-25.40,934.26,824.35" netOffset="-349034.27,-5645899.99" origBoundary="6.850765,50.944902,6.863955,50.952485" projParameter="+proj=utm +zone=32 +ellps=WGS84 +datum=WGS84 +units=m +no_defs"/>
   <poly color="red" fill="1" id="228005018" layer="-1.00" shape="641.01,-6.59 636.65,-15.24 644.45,-20.61 644.73,-15.00 649.96,-15.26 660.01,-22.12 654.92,-12.37 656.62,-11.47 656.65,-6.43 653.48,-6.29 653.37,-8.99 645.20,-8.69 641.01,-6.59" type="building"/>
   <poly color="red" fill="0" id="228005034" layer="-1.00" shape="710.95,-14.28 699.30,-15.86" type="building"/>
   <poly color="red" fill="1" id="228005035" layer="-1.00" shape="680.43,3.23 680.29,4.27 682.33,4.54 681.90,7.78 675.25,6.91 677.27,-8.37 682.04,-7.74 681.79,-5.92 689.30,-4.93 688.99,-3.73 695.73,-2.83 695.52,-1.27 695.86,-1.22 696.40,-1.15 697.01,-5.77 696.15,-5.89 696.75,-10.49 704.26,-9.71 702.18,6.08 680.43,3.23" type="building"/>
   <poly color="red" fill="1" id="228005050" layer="-1.00" shape="558.44,-13.82 575.95,-11.32 558.44,-13.82" type="building"/>
   <poly color="red" fill="1" id="228005052" layer="-1.00" shape="752.99,-16.91 753.20,-18.53 772.41,-25.40 771.00,-14.57 753.42,-16.85 752.99,-16.91" type="building"/>
   <poly color="red" fill="1" id="228005055" layer="-1.00" shape="752.79,-12.10 744.21,-13.22 745.02,-19.44 750.84,-18.69 750.86,-18.84 753.20,-18.53 752.99,-16.91 753.42,-16.85 752.79,-12.10" type="building"/>
   <poly color="red" fill="1" id="228005057" layer="-1.00" shape="587.59,-7.64 599.21,-20.66 598.53,-15.75 600.15,-15.52 599.31,-9.58 598.57,-9.68 598.16,-6.76 597.36,-6.86 597.27,-6.31 587.59,-7.64" type="building"/>
   <poly color="red" fill="1" id="228005061" layer="-1.00" shape="721.61,-10.69 722.22,-15.15 723.82,-14.95 725.03,-23.38 733.77,-22.16 734.04,-22.10 733.69,-19.69 733.50,-18.39 734.04,-18.32 733.26,-13.12 732.78,-13.20 732.23,-9.24 721.61,-10.69" type="building"/>
   <poly color="140,196,107" fill="0" id="23074710" layer="-4.00" shape="5.30,332.92 38.01,70.31 64.10,-1.59" type="forest"/>
   <poly color="140,196,107" fill="0" id="23074711" layer="-3.00" shape="3.76,361.18 19.47,375.35 32.70,390.52 40.91,408.87 87.82,718.24" type="forest"/>
   <poly color="140,196,107" fill="0" id="23074743" layer="-3.00" shape="913.97,475.61 915.63,451.98 911.20,389.75 906.68,363.35" type="forest"/>
   <poly color="140,196,107" fill="0" id="23074743#1" layer="-4.00" shape="913.97,475.61 915.63,451.98 911.20,389.75 906.68,363.35" type="forest"/>
   <poly color="235,235,227" fill="1" id="23076140" layer="-3.00" shape="762.53,114.27 218.20,38.86 185.77,41.26 146.55,48.06 124.66,52.67 100.74,52.11 73.16,40.99 61.32,73.33 58.83,88.67 45.78,180.63 28.98,302.20 22.81,331.10 94.11,340.07 279.99,364.83 612.97,255.87 626.88,157.47 755.28,175.38 762.95,126.14 783.18,134.03 797.02,143.18 806.77,155.65 815.01,172.39 818.39,189.52 821.62,208.09 834.21,286.30 628.90,262.27 624.12,307.95 563.01,300.94 553.58,303.07 547.59,310.09 544.87,341.04 498.42,334.90 492.11,399.38 286.58,378.35 99.10,356.21 40.21,350.69 26.75,362.24 39.00,379.49 48.76,404.93 54.20,433.63 76.01,551.03 95.63,655.04 107.77,713.54 116.49,719.10 183.34,727.18 536.60,769.31 825.57,806.13 875.67,810.44 887.42,703.59 912.78,492.58 913.97,475.61 915.63,451.98 911.20,389.75 906.68,363.35 877.01,189.74 874.26,178.26 835.94,190.37 823.59,160.10 812.29,144.72 805.37,135.19 789.28,122.35 762.53,114.27" type="residential"/>
   <poly color="207,245,201" fill="0" id="24453907" layer="-2.00" shape="783.44,25.33 908.71,36.09" type="tourism"/>
   <poly color="235,235,227" fill="1" id="24453940" layer="-3.00" shape="783.44,25.33" type="residential"/>
   <poly color="140,196,107" fill="0" id="24585552" layer="-3.00" shape="843.06,73.36 908.71,36.09 783.44,25.33" type="forest"/>
   <poly color="red" fill="1" id="251065631" layer="-1.00" shape="184.21,125.37 184.68,122.01 186.09,120.96 186.83,115.69 187.44,115.76 193.47,116.62 194.26,116.75 193.67,120.88 195.16,122.84 194.60,126.81 184.21,125.37" type="building"/>
   <poly color="red" fill="1" id="251065632" layer="-1.00" shape="189.90,68.15 190.86,61.40 189.64,60.59 189.96,58.41 191.35,57.97 191.46,57.25 202.64,58.83 201.32,68.22 196.35,67.51 196.14,69.03 189.90,68.15" type="building"/>
   <poly color="red" fill="1" id="251065633" layer="-1.00" shape="188.38,79.02 188.47,78.33 187.25,77.52 187.56,75.33 188.95,74.90 189.90,68.15 196.14,69.03 196.35,67.51 201.32,68.22 199.56,80.60 188.38,79.02" type="building"/>
   <poly color="red" fill="1" id="251065634" layer="-1.00" shape="128.72,165.04 128.29,167.99 119.53,166.76 120.08,162.86 118.59,160.83 119.19,156.63 129.67,158.10 129.29,160.98 132.31,161.40 131.74,165.47 128.72,165.04" type="building"/>
   <poly color="red" fill="1" id="251065636" layer="-1.00" shape="141.33,192.08 136.56,191.44 135.73,197.54 129.61,196.72 130.44,190.56 135.95,191.31 137.71,178.33 143.10,179.07 141.33,192.08" type="building"/>
   <poly color="red" fill="1" id="251065637" layer="-1.00" shape="77.96,202.32 77.33,203.64 78.15,204.05 77.52,205.36 74.81,204.04 76.10,201.41 70.86,198.84 70.48,197.82 71.52,195.63 72.53,195.26 73.45,193.35 76.64,194.89 84.71,198.88 85.07,199.91 84.13,201.84 83.12,202.25 82.07,204.34 77.96,202.32" type="building"/>
   <poly color="red" fill="1" id="251065638" layer="-1.00" shape="70.76,252.37 71.69,250.43 71.33,249.45 72.38,247.28 73.41,246.93 78.67,249.47 80.01,246.79 82.70,248.12 82.02,249.47 81.33,249.14 80.62,250.42 84.66,252.39 83.63,254.56 83.95,255.59 83.01,257.50 82.04,257.86 78.32,256.07 70.76,252.37" type="building"/>
   <poly color="red" fill="1" id="251065639" layer="-1.00" shape="65.45,289.82 66.41,287.90 66.07,286.88 67.12,284.78 68.13,284.42 73.42,287.03 74.75,284.36 77.44,285.68 76.79,287.02 75.99,286.64 75.31,287.96 79.38,289.96 78.34,292.07 78.65,293.12 77.72,295.02 76.73,295.35 73.09,293.59 65.45,289.82" type="building"/>
   <poly color="red" fill="1" id="251065640" layer="-1.00" shape="86.52,139.64 87.45,137.69 87.15,136.73 88.24,134.57 89.27,134.22 94.47,136.75 95.80,134.06 98.51,135.42 97.86,136.77 97.05,136.36 96.32,137.64 100.39,139.66 99.40,141.86 99.75,142.87 98.80,144.80 97.84,145.14 94.12,143.35 86.52,139.64" type="building"/>
   <poly color="red" fill="1" id="251065641" layer="-1.00" shape="88.53,127.21 87.85,128.51 88.69,128.93 88.12,130.26 85.37,128.90 86.58,126.46 81.35,123.70 81.03,122.60 82.05,120.50 83.08,120.12 84.04,118.24 87.19,119.77 95.28,123.76 95.63,124.73 94.68,126.67 93.67,127.05 92.64,129.20 88.53,127.21" type="building"/>
   <poly color="red" fill="1" id="251065642" layer="-1.00" shape="83.37,164.82 82.73,166.15 83.54,166.54 82.88,167.85 80.17,166.52 81.48,163.87 76.23,161.27 75.84,160.27 76.88,158.09 77.89,157.75 78.79,155.80 81.94,157.34 90.03,161.33 90.38,162.38 89.44,164.29 88.45,164.66 87.22,166.84 83.37,164.82" type="building"/>
   <poly color="red" fill="1" id="251065643" layer="-1.00" shape="72.75,239.92 72.15,241.26 72.93,241.65 72.29,242.95 69.60,241.61 70.89,238.99 65.52,236.37 65.21,235.35 66.23,233.26 67.26,232.88 68.22,230.92 71.37,232.45 79.46,236.45 79.81,237.44 78.88,239.34 77.87,239.69 76.82,241.87 72.75,239.92" type="building"/>
   <poly color="red" fill="1" id="251065644" layer="-1.00" shape="75.98,214.77 76.92,212.84 76.59,211.81 77.63,209.67 78.67,209.32 83.90,211.93 85.26,209.20 87.96,210.53 87.29,211.96 86.48,211.55 85.84,212.88 89.91,214.89 88.86,217.03 89.21,218.02 88.27,219.95 87.21,220.28 83.57,218.50 75.98,214.77" type="building"/>
   <poly color="red" fill="1" id="251065645" layer="-1.00" shape="102.16,107.10 98.18,105.14 97.50,106.46 98.20,106.81 97.57,108.14 94.84,106.79 96.12,104.15 90.92,101.59 90.56,100.55 91.60,98.48 92.62,98.11 93.65,96.17 99.50,99.01 104.89,101.67 105.25,102.71 104.29,104.64 103.26,104.97 102.16,107.10" type="building"/>
   <poly color="red" fill="1" id="251065646" layer="-1.00" shape="81.24,177.15 82.25,175.22 81.89,174.23 82.97,172.08 83.94,171.75 89.27,174.40 90.59,171.69 93.30,172.97 92.63,174.35 91.80,173.93 91.11,175.26 95.19,177.30 94.14,179.43 94.46,180.45 93.50,182.37 92.48,182.70 88.88,180.93 81.24,177.15" type="building"/>
   <poly color="red" fill="1" id="251065647" layer="-1.00" shape="178.86,111.53 179.72,105.30 178.71,105.16 179.59,98.75 180.52,98.88 181.71,90.21 187.42,90.99 187.63,89.39 192.52,90.06 191.94,94.30 193.31,94.48 192.43,100.87 193.54,101.03 193.16,103.80 192.00,103.63 190.69,113.15 187.86,112.79 178.86,111.53" type="building"/>
   <poly color="red" fill="1" id="251065648" layer="-1.00" shape="67.55,277.52 66.92,278.87 67.72,279.22 67.09,280.54 64.37,279.24 65.64,276.60 60.29,274.01 59.97,273.00 60.98,270.81 61.98,270.50 62.98,268.50 66.11,270.02 74.22,274.04 74.56,275.11 73.58,277.01 72.63,277.37 71.59,279.55 67.55,277.52" type="building"/>
   <poly color="red" fill="1" id="251065649" layer="-1.00" shape="52.12,323.50 53.06,321.53 52.72,320.51 53.76,318.43 54.80,318.04 60.01,320.62 61.34,317.89 61.64,318.04 64.06,319.28 63.34,320.73 62.57,320.33 61.94,321.61 66.02,323.61 64.97,325.71 65.28,326.76 64.34,328.68 63.39,329.00 57.97,326.37 52.12,323.50" type="building"/>
   <poly color="red" fill="1" id="251065650" layer="-1.00" shape="62.21,314.94 61.51,316.27 62.30,316.65 61.64,318.04 61.34,317.89 58.93,316.69 60.27,313.98 55.08,311.45 54.69,310.43 55.78,308.28 56.74,307.93 57.69,306.07 60.83,307.60 68.94,311.60 69.29,312.55 68.29,314.47 67.28,314.82 66.24,316.97 62.21,314.94" type="building"/>
   <poly color="red" fill="1" id="251065651" layer="-1.00" shape="66.11,270.02 67.24,267.80 68.23,267.47 69.45,265.04 67.23,263.95 66.85,262.94 67.89,260.81 68.91,260.44 69.84,258.51 75.69,261.39 81.08,264.08 81.44,265.08 80.48,266.97 79.48,267.31 78.43,269.45 75.30,267.90 74.02,270.48 75.59,271.25 74.22,274.04 66.11,270.02" type="building"/>
   <poly color="red" fill="1" id="251065652" layer="-1.00" shape="71.37,232.45 72.45,230.26 73.46,229.87 74.72,227.47 72.46,226.38 72.12,225.36 73.14,223.25 74.17,222.89 75.12,220.95 80.96,223.82 86.34,226.49 86.70,227.50 85.80,229.41 84.79,229.76 83.73,231.91 80.61,230.37 79.30,232.88 80.87,233.69 79.46,236.45 71.37,232.45" type="building"/>
   <poly color="red" fill="1" id="251065653" layer="-1.00" shape="76.64,194.89 77.69,192.62 78.67,192.27 79.95,189.88 77.70,188.78 77.37,187.73 78.41,185.60 79.44,185.25 80.38,183.38 86.22,186.27 91.62,188.92 91.98,189.93 91.03,191.87 90.05,192.19 89.01,194.32 85.82,192.78 84.56,195.33 86.10,196.10 84.71,198.88 76.64,194.89" type="building"/>
   <poly color="red" fill="1" id="251065654" layer="-1.00" shape="68.94,311.60 60.83,307.60 62.00,305.36 63.01,305.00 64.21,302.57 61.95,301.48 61.61,300.48 62.66,298.34 63.66,298.05 64.63,296.16 70.44,298.96 75.84,301.61 76.19,302.60 75.23,304.53 74.21,304.89 73.17,307.00 70.03,305.41 68.77,308.00 70.34,308.79 68.94,311.60" type="building"/>
   <poly color="red" fill="1" id="251065655" layer="-1.00" shape="95.28,123.76 87.19,119.77 88.15,117.47 89.19,116.92 90.33,114.76 88.15,113.62 87.80,112.61 88.93,110.42 89.86,110.19 90.88,108.22 96.74,111.08 102.15,113.71 102.51,114.77 101.58,116.67 100.58,117.02 99.52,119.18 96.36,117.61 95.08,120.17 96.65,120.95 95.28,123.76" type="building"/>
   <poly color="red" fill="1" id="251065656" layer="-1.00" shape="81.94,157.34 83.05,155.09 84.04,154.74 85.28,152.30 83.05,151.23 82.71,150.21 83.78,148.01 84.76,147.69 85.71,145.82 91.51,148.69 96.88,151.34 97.25,152.43 96.32,154.33 95.31,154.65 94.26,156.78 91.13,155.23 89.87,157.81 91.45,158.62 90.03,161.33 81.94,157.34" type="building"/>
   <poly color="red" fill="1" id="251065657" layer="-1.00" shape="92.52,88.98 93.47,86.98 93.09,86.05 94.09,83.86 95.14,83.51 97.36,84.64 98.53,82.22 98.15,81.19 99.30,78.79 102.21,80.18 107.56,82.98 106.10,85.79 104.56,85.03 103.32,87.57 106.44,89.12 105.36,91.24 105.70,92.27 104.73,94.20 103.80,94.53 99.40,92.37 92.52,88.98" type="building"/>
   <poly color="red" fill="1" id="251065658" layer="-1.00" shape="176.79,200.21 177.11,197.93 173.60,197.43 174.42,191.58 175.44,184.38 175.90,184.43 175.60,186.56 179.41,187.09 179.52,186.31 180.04,186.38 180.23,185.04 180.73,185.12 180.54,186.45 181.44,186.57 181.33,187.34 184.71,187.82 185.01,185.73 185.47,185.79 183.61,198.88 180.18,198.40 179.86,200.64 176.79,200.21" type="building"/>
   <poly color="red" fill="1" id="251065659" layer="-1.00" shape="86.22,186.27 87.57,183.56 92.96,186.23 91.62,188.92 86.22,186.27" type="building"/>
   <poly color="red" fill="1" id="251065660" layer="-1.00" shape="68.27,321.31 69.59,318.61 74.95,321.28 73.64,323.95 68.27,321.31" type="building"/>
   <poly color="red" fill="1" id="251065661" layer="-1.00" shape="102.21,80.18 103.66,77.42 109.01,80.21 107.56,82.98 102.21,80.18" type="building"/>
   <poly color="red" fill="1" id="251065662" layer="-1.00" shape="54.47,333.18 57.97,326.37 63.39,329.00 60.82,334.08 54.47,333.18" type="building"/>
   <poly color="red" fill="1" id="251065668" layer="-1.00" shape="75.69,261.39 77.04,258.70 82.42,261.36 81.08,264.08 75.69,261.39" type="building"/>
   <poly color="red" fill="1" id="251065669" layer="-1.00" shape="126.60,104.16 128.70,89.28 139.81,90.84 137.71,105.70 126.60,104.16" type="building"/>
   <poly color="red" fill="1" id="251065672" layer="-1.00" shape="96.74,111.08 98.10,108.42 103.48,111.06 102.15,113.71 96.74,111.08" type="building"/>
   <poly color="red" fill="1" id="251065673" layer="-1.00" shape="70.44,298.96 71.78,296.24 77.14,298.90 75.84,301.61 70.44,298.96" type="building"/>
   <poly color="red" fill="1" id="251065677" layer="-1.00" shape="80.96,223.82 82.28,221.12 87.66,223.77 86.34,226.49 80.96,223.82" type="building"/>
   <poly color="red" fill="1" id="251065678" layer="-1.00" shape="124.75,117.03 126.14,107.12 136.64,108.59 135.24,118.50 124.75,117.03" type="building"/>
   <poly color="red" fill="1" id="251065682" layer="-1.00" shape="91.51,148.69 92.82,145.98 98.24,148.65 96.88,151.34 91.51,148.69" type="building"/>
   <poly color="red" fill="1" id="251065684" layer="-1.00" shape="174.42,191.58 171.32,191.14 170.50,197.00 173.60,197.43 174.42,191.58" type="building"/>
   <poly color="red" fill="1" id="251065685" layer="-1.00" shape="71.78,296.24 73.09,293.59 76.73,295.35 78.48,296.23 77.14,298.90 71.78,296.24" type="building"/>
   <poly color="red" fill="1" id="251065686" layer="-1.00" shape="92.82,145.98 94.12,143.35 97.84,145.14 99.53,146.00 98.24,148.65 92.82,145.98" type="building"/>
   <poly color="red" fill="1" id="251065687" layer="-1.00" shape="77.04,258.70 78.32,256.07 82.04,257.86 83.73,258.69 82.42,261.36 77.04,258.70" type="building"/>
   <poly color="red" fill="1" id="251065688" layer="-1.00" shape="157.18,200.54 157.28,199.73 157.64,197.20 164.04,197.75 163.67,201.25 157.18,200.54" type="building"/>
   <poly color="red" fill="1" id="251065689" layer="-1.00" shape="82.28,221.12 83.57,218.50 87.21,220.28 88.96,221.16 87.66,223.77 82.28,221.12" type="building"/>
   <poly color="red" fill="1" id="251065691" layer="-1.00" shape="193.73,83.42 194.13,80.58 201.06,81.55 200.65,84.40 198.76,84.13 193.73,83.42" type="building"/>
   <poly color="red" fill="1" id="251065694" layer="-1.00" shape="87.57,183.56 88.88,180.93 92.48,182.70 94.27,183.59 92.96,186.23 87.57,183.56" type="building"/>
   <poly color="red" fill="1" id="251065696" layer="-1.00" shape="192.37,86.34 192.80,83.29 193.73,83.42 198.76,84.13 198.32,87.17 192.37,86.34" type="building"/>
   <poly color="red" fill="1" id="251065697" layer="-1.00" shape="187.44,115.76 187.86,112.79 190.69,113.15 193.88,113.61 193.47,116.62 187.44,115.76" type="building"/>
   <poly color="red" fill="1" id="251065698" layer="-1.00" shape="99.50,99.01 100.79,96.36 104.39,98.11 106.18,99.01 104.89,101.67 99.50,99.01" type="building"/>
   <poly color="red" fill="1" id="251065700" layer="-1.00" shape="149.50,82.02 148.72,87.75 157.65,88.97 158.43,83.24 154.66,82.73 149.50,82.02" type="building"/>
   <poly color="red" fill="1" id="251065701" layer="-1.00" shape="94.59,133.44 95.83,130.76 101.28,133.45 99.97,136.11 98.51,135.42 95.80,134.06 94.59,133.44" type="building"/>
   <poly color="red" fill="1" id="251065702" layer="-1.00" shape="98.09,95.01 99.40,92.37 103.80,94.53 105.68,95.47 104.39,98.11 100.79,96.36 98.09,95.01" type="building"/>
   <poly color="red" fill="1" id="251065703" layer="-1.00" shape="84.07,208.61 85.38,205.95 90.76,208.60 89.45,211.25 87.96,210.53 85.26,209.20 84.07,208.61" type="building"/>
   <poly color="red" fill="1" id="251065704" layer="-1.00" shape="78.80,246.18 80.14,243.46 85.50,246.15 84.19,248.83 82.70,248.12 80.01,246.79 78.80,246.18" type="building"/>
   <poly color="red" fill="1" id="251065705" layer="-1.00" shape="73.56,283.75 74.85,281.06 80.25,283.71 78.91,286.40 77.44,285.68 74.75,284.36 73.56,283.75" type="building"/>
   <poly color="red" fill="1" id="251065708" layer="-1.00" shape="89.33,171.10 90.56,168.54 95.96,171.09 94.73,173.65 93.30,172.97 90.59,171.69 89.33,171.10" type="building"/>
   <poly color="red" fill="1" id="251065709" layer="-1.00" shape="156.66,190.78 156.68,190.55 157.38,184.32 170.00,185.73 169.27,192.17 158.48,190.99 156.66,190.78" type="building"/>
   <poly color="red" fill="1" id="251065710" layer="-1.00" shape="148.85,198.96 149.88,189.90 156.68,190.55 156.66,190.78 158.48,190.99 157.64,197.20 157.28,199.73 148.85,198.96" type="building"/>
   <poly color="red" fill="1" id="251065714" layer="-1.00" shape="144.40,72.50 135.48,71.28 134.29,79.95 143.22,81.17 144.40,72.50" type="building"/>
   <poly color="red" fill="1" id="251065716" layer="-1.00" shape="178.65,164.96 179.12,161.62 180.52,160.60 181.28,155.23 188.71,156.29 188.13,160.49 189.59,162.47 189.04,166.41 178.65,164.96" type="building"/>
   <poly color="red" fill="1" id="251065717" layer="-1.00" shape="121.97,136.82 122.56,132.59 124.53,131.11 125.09,127.16 132.61,128.22 131.87,133.51 132.94,134.90 132.46,138.29 121.97,136.82" type="building"/>
   <poly color="red" fill="1" id="251065718" layer="-1.00" shape="125.09,127.16 125.64,123.19 124.15,121.28 124.75,117.03 135.24,118.50 134.77,121.87 133.37,122.92 132.61,128.22 125.09,127.16" type="building"/>
   <poly color="red" fill="1" id="251065719" layer="-1.00" shape="181.28,155.23 182.02,149.96 180.96,148.52 181.43,145.17 191.81,146.62 191.26,150.61 189.29,152.07 188.71,156.29 181.28,155.23" type="building"/>
   <poly color="red" fill="1" id="251065720" layer="-1.00" shape="184.06,135.44 184.80,130.14 183.74,128.72 184.21,125.37 194.60,126.81 194.04,130.80 192.09,132.28 191.48,136.47 184.06,135.44" type="building"/>
   <poly color="red" fill="1" id="251065721" layer="-1.00" shape="181.43,145.17 181.90,141.81 183.32,140.73 184.06,135.44 191.48,136.47 190.89,140.70 192.37,142.66 191.81,146.62 181.43,145.17" type="building"/>
   <poly color="red" fill="1" id="251065722" layer="-1.00" shape="119.19,156.63 119.78,152.42 121.76,150.88 122.31,146.97 129.82,148.02 129.08,153.34 130.15,154.74 129.67,158.10 119.19,156.63" type="building"/>
   <poly color="red" fill="1" id="251065723" layer="-1.00" shape="122.31,146.97 122.86,143.05 121.37,141.08 121.97,136.82 132.46,138.29 131.99,141.68 130.58,142.72 129.82,148.02 122.31,146.97" type="building"/>
   <poly color="red" fill="1" id="251065725" layer="-1.00" shape="178.48,175.01 179.25,169.68 178.18,168.30 178.65,164.96 189.04,166.41 188.48,170.37 186.52,171.83 185.90,176.05 178.48,175.01" type="building"/>
   <poly color="red" fill="1" id="251068143" layer="-1.00" shape="163.46,338.35 164.67,329.73 167.02,330.06 167.37,327.60 168.82,326.47 170.19,326.66 171.28,328.14 171.29,328.24 175.28,328.81 173.74,339.81 163.46,338.35" type="building"/>
   <poly color="red" fill="1" id="251068144" layer="-1.00" shape="262.31,276.50 262.66,274.06 268.28,274.84 267.72,278.85 265.73,278.57 264.69,286.01 264.10,285.93 252.72,284.34 252.77,283.92 253.99,275.34 262.31,276.50" type="building"/>
   <poly color="red" fill="1" id="251068145" layer="-1.00" shape="321.01,154.60 320.21,155.21 317.82,152.08 320.95,149.69 321.57,150.50 324.87,148.03 328.79,148.56 333.03,154.18 327.45,158.41 323.50,157.86 321.01,154.60" type="building"/>
   <poly color="red" fill="1" id="251068146" layer="-1.00" shape="106.15,327.17 105.18,333.77 103.19,333.48 97.28,332.61 94.18,332.16 95.15,325.55 106.15,327.17" type="building"/>
   <poly color="red" fill="1" id="251068147" layer="-1.00" shape="312.49,194.60 302.40,193.12 303.16,187.99 303.42,188.02 303.81,185.40 303.48,185.35 304.28,179.90 314.45,181.39 313.60,187.14 312.49,194.60" type="building"/>
   <poly color="red" fill="1" id="251068148" layer="-1.00" shape="214.00,149.73 215.54,138.71 215.58,138.47 220.44,139.15 227.86,140.18 227.00,146.28 227.65,146.37 226.97,151.26 226.92,151.52 221.32,150.74 214.00,149.73" type="building"/>
   <poly color="red" fill="1" id="251068149" layer="-1.00" shape="302.20,244.68 292.78,243.44 291.72,251.49 290.75,251.37 290.36,254.34 292.71,254.65 298.59,255.41 301.92,255.85 302.34,252.62 301.17,252.47 302.20,244.68" type="building"/>
   <poly color="red" fill="1" id="251068150" layer="-1.00" shape="257.66,195.31 263.99,196.16 263.79,197.66 268.88,198.34 269.08,196.85 273.65,197.46 275.08,186.93 261.06,185.05 260.39,189.93 258.42,189.67 257.66,195.31" type="building"/>
   <poly color="red" fill="1" id="251068151" layer="-1.00" shape="303.05,170.69 303.44,167.79 304.30,161.61 306.93,161.98 307.83,160.84 309.45,161.07 310.00,162.42 315.77,163.23 314.54,172.29 303.99,170.83 303.05,170.69" type="building"/>
   <poly color="red" fill="1" id="251068152" layer="-1.00" shape="272.87,69.01 273.27,66.12 272.29,65.99 271.42,64.87 271.62,63.43 272.79,62.58 273.75,62.71 274.16,59.81 288.06,61.79 286.78,70.96 272.87,69.01" type="building"/>
   <poly color="red" fill="1" id="251068153" layer="-1.00" shape="218.51,297.67 218.31,299.12 212.43,298.31 213.98,287.11 218.35,287.70 218.56,286.24 226.05,287.27 225.12,293.97 224.49,298.50 224.28,298.46 218.51,297.67" type="building"/>
   <poly color="red" fill="1" id="251068154" layer="-1.00" shape="310.03,308.94 309.92,309.66 305.33,309.03 305.44,308.29 302.22,307.85 303.69,297.35 315.45,298.98 314.67,304.59 313.98,309.48 313.87,309.46 310.03,308.94" type="building"/>
   <poly color="red" fill="1" id="251068155" layer="-1.00" shape="226.94,210.48 224.32,206.97 224.96,202.52 222.63,202.19 223.79,194.00 226.36,194.34 228.14,196.60 235.94,197.71 237.67,199.09 236.39,208.82 233.05,211.35 226.94,210.48" type="building"/>
   <poly color="red" fill="1" id="251068156" layer="-1.00" shape="179.21,293.65 176.29,293.24 176.46,292.06 174.97,291.85 175.58,287.50 176.42,287.61 176.82,287.26 176.90,286.73 175.86,285.53 176.78,278.94 181.19,279.55 179.21,293.65" type="building"/>
   <poly color="red" fill="1" id="251068157" layer="-1.00" shape="299.27,173.18 298.60,172.86 298.17,172.56 297.51,171.84 297.16,171.00 297.03,170.35 297.50,167.04 303.44,167.79 303.05,170.69 303.99,170.83 303.59,173.80 299.27,173.18" type="building"/>
   <poly color="red" fill="1" id="251068158" layer="-1.00" shape="281.84,310.99 282.00,310.04 283.08,310.18 283.46,307.27 285.95,307.58 287.43,305.34 288.84,306.27 287.72,308.01 288.82,308.94 289.50,310.03 289.94,311.97 281.84,310.99" type="building"/>
   <poly color="red" fill="0" id="251068159" layer="-1.00" shape="221.26,101.56 221.80,97.73 222.73,91.12 230.03,92.13 230.42,89.42 233.30,89.82 232.92,92.55 237.61,93.20 237.31,95.39 236.15,103.63 221.32,101.57" type="building"/>
   <poly color="red" fill="1" id="251068160" layer="-1.00" shape="116.13,284.77 115.50,283.96 116.62,275.86 117.34,270.83 121.57,271.46 123.28,270.16 126.21,270.58 126.43,270.61 124.86,281.71 124.38,285.17 123.60,285.83 116.13,284.77" type="building"/>
   <poly color="red" fill="1" id="251068161" layer="-1.00" shape="181.19,279.55 185.73,280.18 185.03,285.20 184.15,285.83 182.88,285.65 182.71,286.85 183.85,287.01 184.63,288.03 183.92,293.11 182.43,292.90 182.27,294.08 179.21,293.65 181.19,279.55" type="building"/>
   <poly color="red" fill="1" id="251068162" layer="-1.00" shape="232.32,340.86 232.69,338.30 229.81,337.88 229.77,338.06 229.52,338.01 229.55,337.86 228.54,336.55 228.77,334.88 230.10,333.88 230.63,330.10 243.44,331.90 241.98,342.23 232.32,340.86" type="building"/>
   <poly color="red" fill="1" id="251068163" layer="-1.00" shape="269.40,358.32 269.73,355.55 267.98,353.28 268.49,348.89 270.70,347.16 271.06,344.38 277.04,345.10 276.71,347.88 278.47,350.07 277.95,354.57 275.74,356.28 275.41,359.03 269.40,358.32" type="building"/>
   <poly color="red" fill="1" id="251068164" layer="-1.00" shape="202.30,340.81 196.87,340.04 197.22,337.56 195.94,335.86 196.78,329.93 198.47,328.64 198.82,326.17 204.25,326.94 203.90,329.41 205.18,331.12 204.43,336.54 202.97,336.33 202.30,340.81" type="building"/>
   <poly color="red" fill="1" id="251068165" layer="-1.00" shape="158.83,290.87 158.90,290.42 159.78,284.49 161.03,276.11 166.21,276.87 166.31,276.16 167.39,276.32 167.28,277.01 170.23,277.45 170.79,277.54 170.16,281.68 168.58,292.32 158.83,290.87" type="building"/>
   <poly color="red" fill="1" id="251068166" layer="-1.00" shape="283.56,101.22 284.92,101.42 284.01,107.88 272.03,106.20 272.95,99.73 273.09,99.76 283.56,101.22" type="building"/>
   <poly color="red" fill="1" id="251068167" layer="-1.00" shape="267.71,179.37 268.73,172.16 267.74,172.01 266.46,170.33 266.91,167.12 268.63,165.83 280.66,167.56 280.46,168.91 281.04,169.67 280.77,171.57 280.10,171.48 278.73,180.93 272.78,180.10 267.71,179.37" type="building"/>
   <poly color="red" fill="1" id="251068168" layer="-1.00" shape="145.72,288.96 144.87,287.83 141.77,287.39 143.13,277.51 143.29,276.51 149.56,277.43 150.40,278.56 154.53,279.18 153.46,286.64 151.95,286.41 150.78,287.20 150.58,288.60 149.43,289.50 145.72,288.96" type="building"/>
   <poly color="red" fill="1" id="251068169" layer="-1.00" shape="137.66,287.81 133.71,287.31 132.79,285.98 133.16,284.18 132.35,282.98 130.93,282.75 131.72,275.88 133.21,275.10 138.39,275.84 139.31,276.97 143.13,277.51 141.77,287.39 138.78,286.96 137.66,287.81" type="building"/>
   <poly color="red" fill="1" id="251068170" layer="-1.00" shape="257.00,263.12 256.86,264.11 252.21,263.45 252.95,258.26 250.95,257.98 252.43,247.61 253.92,247.82 254.94,240.66 259.62,241.31 259.75,240.35 267.94,241.50 264.76,263.86 264.71,264.21 259.67,263.50 257.00,263.12" type="building"/>
   <poly color="red" fill="1" id="251068171" layer="-1.00" shape="168.24,248.52 168.66,245.64 166.55,242.88 167.13,238.67 169.88,236.60 170.14,234.72 171.94,234.96 172.07,234.01 175.99,234.59 175.62,237.38 177.89,240.37 177.34,244.21 174.38,246.46 173.94,249.33 168.24,248.52" type="building"/>
   <poly color="red" fill="1" id="251068172" layer="-1.00" shape="146.37,245.42 146.66,243.27 143.79,239.47 144.28,235.64 148.02,232.76 148.33,230.63 152.24,231.18 152.13,231.95 153.97,232.17 153.81,233.48 156.56,237.12 155.96,241.37 152.35,244.09 152.05,246.22 146.37,245.42" type="building"/>
   <poly color="red" fill="1" id="251068173" layer="-1.00" shape="157.68,247.01 158.08,244.17 155.96,241.37 156.56,237.12 159.31,235.13 159.61,233.00 161.39,233.26 161.50,232.48 165.42,233.03 165.01,235.90 167.13,238.67 166.55,242.88 163.79,244.98 163.39,247.84 157.68,247.01" type="building"/>
   <poly color="red" fill="1" id="251068174" layer="-1.00" shape="311.67,115.40 311.71,115.14 312.39,110.30 310.89,110.09 311.43,106.38 312.91,106.59 313.56,101.78 313.62,101.51 319.31,102.28 323.50,102.88 322.34,111.18 325.21,111.60 324.42,117.16 317.37,116.20 311.67,115.40" type="building"/>
   <poly color="red" fill="1" id="251068175" layer="-1.00" shape="244.31,67.55 244.47,66.51 239.18,65.75 240.73,54.93 246.01,55.68 246.14,54.71 250.28,55.30 250.14,56.30 253.29,56.76 252.86,59.74 253.66,59.86 252.55,67.63 247.19,66.87 247.04,67.92 244.31,67.55" type="building"/>
   <poly color="red" fill="1" id="251068176" layer="-1.00" shape="230.62,83.21 230.68,82.83 224.00,81.89 225.14,73.98 225.72,69.95 241.55,72.20 240.96,76.38 242.11,76.71 243.10,77.42 244.17,79.47 243.72,80.53 240.52,80.09 239.94,84.12 233.56,83.23 233.51,83.62 230.62,83.21" type="building"/>
   <poly color="red" fill="1" id="251068177" layer="-1.00" shape="293.32,296.61 297.37,299.24 295.97,301.39 295.25,306.44 292.88,306.10 291.63,308.05 288.84,306.27 287.43,305.34 293.32,296.61" type="building"/>
   <poly color="red" fill="1" id="251068178" layer="-1.00" shape="289.09,270.73 289.34,268.95 288.17,268.79 288.75,264.70 289.91,264.87 290.44,261.11 297.00,262.03 297.14,261.10 301.65,261.73 301.00,266.22 301.65,266.32 301.24,269.19 300.60,269.10 300.22,271.77 300.13,272.45 295.31,271.76 295.33,271.61 289.09,270.73" type="building"/>
   <poly color="red" fill="1" id="251068179" layer="-1.00" shape="128.43,235.04 128.54,234.24 125.50,233.79 126.55,226.92 126.63,226.05 126.18,225.74 126.79,224.93 126.91,224.13 126.46,223.78 127.06,223.00 127.49,220.01 127.87,220.07 130.62,220.55 131.11,220.17 133.99,220.56 132.01,234.69 131.78,236.25 128.98,235.87 129.09,235.14 128.43,235.04" type="building"/>