<?xml version="1.0" encoding="utf-8"?><!-- generated on 10/11/17 17:56:28 by SUMO netconvert Version 0.25.0
<?xml version="1.0" encoding="UTF-8"?>

<configuration xmlns:xsi="http://www.w3.org/2001/XMLSchema-instance" xsi:noNamespaceSchemaLocation="http://sumo.dlr.de/xsd/netconvertConfiguration.xsd">

    <input>
        <type-files value="osmNetconvert.typ.xml"/>
        <osm-files value="M_Altstadt_historical_800.osm"/>
    </input>

    <output>
        <output-file value="M_Altstadt_historical_800.net.xml"/>
    </output>

    <projection>
        <proj.utm value="true"/>
    </projection>

    <edge_removal>
        <remove-edges.by-type value="highway.track,highway.unsurfaced,highway.raceway,highway.bridleway,highway.path,highway.footway,highway.pedestrian,highway.cycleway,highway.step,highway.steps,highway.stairs,highway.bus_guideway,highway.ford,railway.rail,railway.tram,railway.light_rail,railway.subway,railway.preserved,railway.narrow_gauge,railway.monorail,railway.funicular"/>
    </edge_removal>

</configuration>
-->
<net version="0.25">
   <location convBoundary="0.00,0.00,802.38,786.73" netOffset="-690930.73,-5334132.41" origBoundary="11.566430,48.131644,11.577229,48.138828" projParameter="+proj=utm +zone=32 +ellps=WGS84 +datum=WGS84 +units=m +no_defs"/>
   <type allow="pedestrian" id="highway.bridleway" numLanes="1" oneway="1" priority="1" speed="2.78" width="2.00"/>
   <type allow="bus" id="highway.bus_guideway" numLanes="1" oneway="1" priority="1" speed="8.33"/>
   <type allow="bicycle" id="highway.cycleway" numLanes="1" oneway="0" priority="1" speed="5.56" width="1.00"/>
   <type allow="pedestrian" id="highway.footway" numLanes="1" oneway="1" priority="1" speed="8.33" width="2.00"/>
   <type allow="army" id="highway.ford" numLanes="1" oneway="0" priority="1" speed="2.78"/>
   <type disallow="tram rail_urban rail rail_electric ship" id="highway.living_street" numLanes="1" oneway="0" priority="3" speed="2.78"/>
   <type allow="private emergency authority army vip passenger hov taxi bus coach delivery truck trailer motorcycle evehicle custom1 custom2" id="highway.motorway" numLanes="2" oneway="1" priority="13" speed="44.44"/>
   <type allow="private emergency authority army vip passenger hov taxi bus coach delivery truck trailer motorcycle evehicle custom1 custom2" id="highway.motorway_link" numLanes="1" oneway="1" priority="12" speed="22.22"/>
   <type allow="bicycle pedestrian" id="highway.path" numLanes="1" oneway="1" priority="1" speed="2.78" width="2.00"/>
   <type allow="pedestrian" id="highway.pedestrian" numLanes="1" oneway="1" priority="1" speed="8.33" width="2.00"/>
   <type disallow="tram rail_urban rail rail_electric ship" id="highway.primary" numLanes="2" oneway="0" priority="9" speed="27.78"/>
   <type disallow="tram rail_urban rail rail_electric ship" id="highway.primary_link" numLanes="1" oneway="0" priority="8" speed="22.22"/>
   <type allow="vip" id="highway.raceway" numLanes="2" oneway="0" priority="14" speed="83.33"/>
   <type disallow="tram rail_urban rail rail_electric ship" id="highway.residential" numLanes="1" oneway="0" priority="4" speed="13.89"/>
   <type disallow="tram rail_urban rail rail_electric ship" id="highway.secondary" numLanes="2" oneway="0" priority="7" speed="27.78"/>
   <type disallow="tram rail_urban rail rail_electric ship" id="highway.secondary_link" numLanes="1" oneway="0" priority="6" speed="22.22"/>
   <type allow="delivery bicycle pedestrian" id="highway.service" numLanes="1" oneway="0" priority="2" speed="5.56"/>
   <type disallow="tram rail_urban rail rail_electric ship" id="highway.services" numLanes="1" oneway="0" priority="1" speed="8.33"/>
   <type allow="pedestrian" id="highway.stairs" numLanes="1" oneway="1" priority="1" speed="1.39" width="2.00"/>
   <type allow="pedestrian" id="highway.step" numLanes="1" oneway="1" priority="1" speed="1.39" width="2.00"/>
   <type allow="pedestrian" id="highway.steps" numLanes="1" oneway="1" priority="1" speed="1.39" width="2.00"/>
   <type disallow="tram rail_urban rail rail_electric ship" id="highway.tertiary" numLanes="1" oneway="0" priority="6" speed="22.22"/>
   <type disallow="tram rail_urban rail rail_electric ship" id="highway.tertiary_link" numLanes="1" oneway="0" priority="5" speed="22.22"/>
   <type disallow="tram rail_urban rail rail_electric ship" id="highway.track" numLanes="1" oneway="0" priority="1" speed="5.56"/>
   <type disallow="tram rail_urban rail rail_electric bicycle pedestrian ship" id="highway.trunk" numLanes="2" oneway="0" priority="11" speed="27.78"/>
   <type disallow="tram rail_urban rail rail_electric bicycle pedestrian ship" id="highway.trunk_link" numLanes="1" oneway="0" priority="10" speed="22.22"/>
   <type disallow="tram rail_urban rail rail_electric ship" id="highway.unclassified" numLanes="1" oneway="0" priority="5" speed="13.89"/>
   <type disallow="tram rail_urban rail rail_electric ship" id="highway.unsurfaced" numLanes="1" oneway="0" priority="1" speed="8.33"/>
   <type allow="rail_urban" id="railway.light_rail" numLanes="1" oneway="1" priority="15" speed="27.78"/>
   <type allow="rail" id="railway.preserved" numLanes="1" oneway="1" priority="15" speed="27.78"/>
   <type allow="rail rail_electric" id="railway.rail" numLanes="1" oneway="1" priority="15" speed="83.33"/>
   <type allow="rail_urban" id="railway.subway" numLanes="1" oneway="1" priority="15" speed="27.78"/>
   <type allow="tram" id="railway.tram" numLanes="1" oneway="1" priority="15" speed="13.89"/>
   <edge function="internal" id=":1097999877_0">
      <lane disallow="tram rail_urban rail rail_electric ship" id=":1097999877_0_0" index="0" length="4.82" shape="92.94,0.49 93.43,-0.92 94.12,-1.52 95.02,-1.33 96.13,-0.34" speed="8.33"/>
   </edge>
   <edge function="internal" id=":1097999885_0">
      <lane disallow="tram rail_urban rail rail_electric ship" id=":1097999885_0_0" index="0" length="10.26" shape="117.66,224.58 115.93,224.51 114.81,227.98 113.31,231.82 110.46,232.86" speed="13.89"/>
      <lane disallow="tram rail_urban rail rail_electric ship" id=":1097999885_0_1" index="1" length="10.26" shape="117.66,224.58 111.61,229.76" speed="13.89"/>
   </edge>
   <edge function="internal" id=":1097999885_2">
      <lane disallow="tram rail_urban rail rail_electric ship" id=":1097999885_2_0" index="0" length="3.96" shape="116.62,227.85 112.76,226.67" speed="13.89"/>
      <lane disallow="tram rail_urban rail rail_electric ship" id=":1097999885_2_1" index="1" length="3.96" shape="117.62,224.70 113.90,223.57" speed="13.89"/>
   </edge>
   <edge function="internal" id=":1097999885_4">
      <lane disallow="tram rail_urban rail rail_electric ship" id=":1097999885_4_0" index="0" length="2.74" shape="117.62,224.70 116.51,223.70 116.21,222.82 116.39,222.56" speed="13.89"/>
   </edge>
   <edge function="internal" id=":1097999885_7">
      <lane id=":1097999885_7_0" index="0" length="2.11" shape="116.39,222.56 116.74,222.06 118.09,221.41" speed="13.89"/>
   </edge>
   <edge function="internal" id=":1097999885_5">
      <lane disallow="tram rail_urban rail rail_electric ship" id=":1097999885_5_0" index="0" length="3.18" shape="115.05,220.48 118.09,221.41" speed="13.89"/>
   </edge>
   <edge function="internal" id=":1097999885_6">
      <lane disallow="tram rail_urban rail rail_electric ship" id=":1097999885_6_0" index="0" length="2.41" shape="115.05,220.48 115.92,221.68 116.02,222.60" speed="13.89"/>
   </edge>
   <edge function="internal" id=":1097999885_8">
      <lane id=":1097999885_8_0" index="0" length="2.41" shape="116.02,222.60 115.35,223.23 113.90,223.57" speed="13.89"/>
   </edge>
   <edge function="internal" id=":1119123618_0">
      <lane disallow="tram rail_urban rail rail_electric ship" id=":1119123618_0_0" index="0" length="6.09" shape="725.29,616.62 724.36,614.93 723.34,613.73 722.21,613.01 720.99,612.78" speed="13.89"/>
   </edge>
   <edge function="internal" id=":1119123618_1">
      <lane disallow="tram rail_urban rail rail_electric ship" id=":1119123618_1_0" index="0" length="4.13" shape="725.29,616.62 724.41,613.61 724.56,612.63" speed="7.64"/>
   </edge>
   <edge function="internal" id=":1119123618_2">
      <lane disallow="tram rail_urban rail rail_electric ship" id=":1119123618_2_0" index="0" length="2.29" shape="725.29,616.62 725.53,615.15 726.04,614.52" speed="13.89"/>
   </edge>
   <edge function="internal" id=":1119123618_9">
      <lane id=":1119123618_9_0" index="0" length="7.04" shape="724.56,612.63 724.78,611.19 726.40,609.35 729.28,608.10" speed="7.64"/>
   </edge>
   <edge function="internal" id=":1119123618_10">
      <lane id=":1119123618_10_0" index="0" length="2.52" shape="726.04,614.52 726.11,614.43 727.03,614.47 728.30,615.25" speed="13.89"/>
   </edge>
   <edge function="internal" id=":1119123618_3">
      <lane disallow="tram rail_urban rail rail_electric ship" id=":1119123618_3_0" index="0" length="5.20" shape="730.15,611.28 728.81,611.86 728.06,612.72 727.88,613.85 728.30,615.25" speed="7.64"/>
   </edge>
   <edge function="internal" id=":1119123618_4">
      <lane disallow="tram rail_urban rail rail_electric ship" id=":1119123618_4_0" index="0" length="9.28" shape="730.15,611.28 720.99,612.78" speed="7.64"/>
   </edge>
   <edge function="internal" id=":1119123618_5">
      <lane disallow="tram rail_urban rail rail_electric ship" id=":1119123618_5_0" index="0" length="4.82" shape="730.15,611.28 728.74,610.81 728.12,610.13 728.30,609.22 729.28,608.10" speed="1.39"/>
   </edge>
   <edge function="internal" id=":1119123618_6">
      <lane disallow="tram rail_urban rail rail_electric ship" id=":1119123618_6_0" index="0" length="8.43" shape="720.97,609.48 729.28,608.10" speed="7.64"/>
   </edge>
   <edge function="internal" id=":1119123618_7">
      <lane disallow="tram rail_urban rail rail_electric ship" id=":1119123618_7_0" index="0" length="9.89" shape="720.97,609.48 723.18,609.82 725.14,610.90 726.84,612.71 728.30,615.25" speed="13.89"/>
   </edge>
   <edge function="internal" id=":1119123618_8">
      <lane disallow="tram rail_urban rail rail_electric ship" id=":1119123618_8_0" index="0" length="2.76" shape="720.97,609.48 722.21,610.29 722.63,611.11 722.47,611.43" speed="13.89"/>
   </edge>
   <edge function="internal" id=":1119123618_11">
      <lane id=":1119123618_11_0" index="0" length="2.06" shape="722.47,611.43 722.22,611.94 720.99,612.78" speed="13.89"/>
   </edge>
   <edge function="internal" id=":1119123629_0">
      <lane disallow="tram rail_urban rail rail_electric ship" id=":1119123629_0_0" index="0" length="0.10" shape="731.49,625.47 731.47,625.45" speed="13.89"/>
   </edge>
   <edge function="internal" id=":1119123629_1">
      <lane disallow="tram rail_urban rail rail_electric ship" id=":1119123629_1_0" index="0" length="2.41" shape="731.49,625.47 731.27,623.99 731.60,623.13" speed="13.89"/>
   </edge>
   <edge function="internal" id=":1119123629_4">
      <lane id=":1119123629_4_0" index="0" length="2.41" shape="731.60,623.13 732.49,622.89 733.94,623.25" speed="13.89"/>
   </edge>
   <edge function="internal" id=":1119123629_2">
      <lane disallow="tram rail_urban rail rail_electric ship" id=":1119123629_2_0" index="0" length="0.10" shape="733.96,623.28 733.94,623.25" speed="13.89"/>
   </edge>
   <edge function="internal" id=":1119123629_3">
      <lane disallow="tram rail_urban rail rail_electric ship" id=":1119123629_3_0" index="0" length="2.41" shape="733.96,623.28 734.15,624.76 733.80,625.61" speed="13.89"/>
   </edge>
   <edge function="internal" id=":1119123629_5">
      <lane id=":1119123629_5_0" index="0" length="2.41" shape="733.80,625.61 732.91,625.84 731.47,625.45" speed="13.89"/>
   </edge>
   <edge function="internal" id=":1119123653_0">
      <lane disallow="tram rail_urban rail rail_electric ship" id=":1119123653_0_0" index="0" length="0.10" shape="98.77,365.86 98.77,365.86" speed="8.33"/>
   </edge>
   <edge function="internal" id=":1119123673_0">
      <lane disallow="tram rail_urban rail rail_electric ship" id=":1119123673_0_0" index="0" length="0.10" shape="71.96,366.71 71.96,366.71" speed="8.33"/>
   </edge>
   <edge function="internal" id=":1120370515_0">
      <lane disallow="tram rail_urban rail rail_electric ship" id=":1120370515_0_0" index="0" length="0.10" shape="783.42,749.36 783.43,749.41" speed="8.33"/>
   </edge>
   <edge function="internal" id=":1120370515_1">
      <lane disallow="tram rail_urban rail rail_electric ship" id=":1120370515_1_0" index="0" length="2.41" shape="783.42,749.36 783.95,747.97 784.66,747.39" speed="8.33"/>
   </edge>
   <edge function="internal" id=":1120370515_4">
      <lane id=":1120370515_4_0" index="0" length="2.41" shape="784.66,747.39 785.56,747.60 786.64,748.63" speed="8.33"/>
   </edge>
   <edge function="internal" id=":1120370515_2">
      <lane disallow="tram rail_urban rail rail_electric ship" id=":1120370515_2_0" index="0" length="0.10" shape="786.63,748.61 786.64,748.63" speed="8.33"/>
   </edge>
   <edge function="internal" id=":1120370515_3">
      <lane disallow="tram rail_urban rail rail_electric ship" id=":1120370515_3_0" index="0" length="2.41" shape="786.63,748.61 786.13,750.01 785.44,750.61" speed="8.33"/>
   </edge>
   <edge function="internal" id=":1120370515_5">
      <lane id=":1120370515_5_0" index="0" length="2.41" shape="785.44,750.61 784.53,750.41 783.43,749.41" speed="8.33"/>
   </edge>
   <edge function="internal" id=":1123378771_0">
      <lane disallow="tram rail_urban rail rail_electric ship" id=":1123378771_0_0" index="0" length="0.10" shape="742.10,210.81 742.10,210.85" speed="8.33"/>
   </edge>
   <edge function="internal" id=":1123378771_1">
      <lane disallow="tram rail_urban rail rail_electric ship" id=":1123378771_1_0" index="0" length="2.41" shape="742.10,210.81 742.88,209.55 743.69,209.11" speed="8.33"/>
   </edge>
   <edge function="internal" id=":1123378771_4">
      <lane id=":1123378771_4_0" index="0" length="2.41" shape="743.69,209.11 744.53,209.49 745.40,210.70" speed="8.33"/>
   </edge>
   <edge function="internal" id=":1123378771_2">
      <lane disallow="tram rail_urban rail rail_electric ship" id=":1123378771_2_0" index="0" length="0.10" shape="745.40,210.69 745.40,210.70" speed="8.33"/>
   </edge>
   <edge function="internal" id=":1123378771_3">
      <lane disallow="tram rail_urban rail rail_electric ship" id=":1123378771_3_0" index="0" length="2.41" shape="745.40,210.69 744.63,211.96 743.83,212.41" speed="8.33"/>
   </edge>
   <edge function="internal" id=":1123378771_5">
      <lane id=":1123378771_5_0" index="0" length="2.41" shape="743.83,212.41 742.99,212.04 742.10,210.85" speed="8.33"/>
   </edge>
   <edge function="internal" id=":1159815159_0">
      <lane disallow="tram rail_urban rail rail_electric ship" id=":1159815159_0_0" index="0" length="5.92" shape="348.81,346.68 344.87,342.26" speed="13.89"/>
   </edge>
   <edge function="internal" id=":1159815159_1">
      <lane disallow="tram rail_urban rail rail_electric ship" id=":1159815159_1_0" index="0" length="2.41" shape="348.81,346.68 348.60,345.21 348.94,344.35" speed="13.89"/>
   </edge>
   <edge function="internal" id=":1159815159_6">
      <lane id=":1159815159_6_0" index="0" length="2.41" shape="348.94,344.35 349.83,344.11 351.27,344.49" speed="13.89"/>
   </edge>
   <edge function="internal" id=":1159815159_2">
      <lane disallow="tram rail_urban rail rail_electric ship" id=":1159815159_2_0" index="0" length="5.13" shape="351.53,339.90 350.68,341.08 350.35,342.24 350.55,343.37 351.27,344.49" speed="9.72"/>
   </edge>
   <edge function="internal" id=":1159815159_3">
      <lane disallow="tram rail_urban rail rail_electric ship" id=":1159815159_3_0" index="0" length="7.92" shape="351.53,339.90 349.43,341.85 347.62,342.89 346.10,343.03 344.87,342.26" speed="9.72"/>
   </edge>
   <edge function="internal" id=":1159815159_4">
      <lane disallow="tram rail_urban rail rail_electric ship" id=":1159815159_4_0" index="0" length="5.92" shape="347.33,340.07 351.27,344.49" speed="13.89"/>
   </edge>
   <edge function="internal" id=":1159815159_5">
      <lane disallow="tram rail_urban rail rail_electric ship" id=":1159815159_5_0" index="0" length="2.41" shape="347.33,340.07 347.54,341.54 347.20,342.40" speed="13.89"/>
   </edge>
   <edge function="internal" id=":1159815159_7">
      <lane id=":1159815159_7_0" index="0" length="2.41" shape="347.20,342.40 346.31,342.64 344.87,342.26" speed="13.89"/>
   </edge>
   <edge function="internal" id=":1159815183_0">
      <lane disallow="tram rail_urban rail rail_electric ship" id=":1159815183_0_0" index="0" length="6.27" shape="344.68,342.05 340.69,337.21" speed="13.89"/>
   </edge>
   <edge function="internal" id=":1159815183_1">
      <lane allow="delivery bicycle pedestrian" id=":1159815183_1_0" index="0" length="2.83" shape="344.68,342.05 344.25,340.94 344.60,339.47 344.67,339.36" speed="9.72"/>
   </edge>
   <edge function="internal" id=":1159815183_2">
      <lane disallow="tram rail_urban rail rail_electric ship" id=":1159815183_2_0" index="0" length="2.54" shape="344.68,342.05 344.47,340.58 344.81,339.72 344.93,339.69" speed="13.89"/>
   </edge>
   <edge function="internal" id=":1159815183_6">
      <lane id=":1159815183_6_0" index="0" length="4.97" shape="344.67,339.36 345.75,337.63 347.68,335.44" speed="9.72"/>
   </edge>
   <edge function="internal" id=":1159815183_7">
      <lane id=":1159815183_7_0" index="0" length="2.28" shape="344.93,339.69 345.70,339.48 347.14,339.85" speed="13.89"/>
   </edge>
   <edge function="internal" id=":1159815183_3">
      <lane allow="delivery bicycle pedestrian" id=":1159815183_3_0" index="0" length="5.17" shape="343.30,335.19 344.34,336.19 345.42,336.57 346.53,336.32 347.68,335.44" speed="9.72"/>
   </edge>
   <edge function="internal" id=":1159815183_4">
      <lane disallow="tram rail_urban rail rail_electric ship" id=":1159815183_4_0" index="0" length="6.04" shape="343.30,335.19 347.14,339.85" speed="13.89"/>
   </edge>
   <edge function="internal" id=":1159815183_5">
      <lane disallow="tram rail_urban rail rail_electric ship" id=":1159815183_5_0" index="0" length="2.41" shape="343.30,335.19 343.41,336.67 343.01,337.50" speed="13.89"/>
   </edge>
   <edge function="internal" id=":1159815183_8">
      <lane id=":1159815183_8_0" index="0" length="2.41" shape="343.01,337.50 342.10,337.68 340.69,337.21" speed="13.89"/>
   </edge>
   <edge function="internal" id=":1230459863_0">
      <lane disallow="tram rail_urban rail rail_electric ship" id=":1230459863_0_0" index="0" length="12.09" shape="32.51,210.89 30.29,213.05 29.06,215.21 28.09,217.80 26.64,221.25" speed="13.89"/>
   </edge>
   <edge function="internal" id=":1230459863_1">
      <lane disallow="tram rail_urban rail rail_electric ship" id=":1230459863_1_0" index="0" length="7.43" shape="32.06,210.31 30.42,213.55 29.31,215.76 28.21,217.99 26.64,221.25" speed="13.89"/>
      <lane disallow="tram rail_urban rail rail_electric ship" id=":1230459863_1_1" index="1" length="7.43" shape="25.84,215.33 23.66,219.83" speed="13.89"/>
      <lane disallow="tram rail_urban rail rail_electric ship" id=":1230459863_1_2" index="2" length="7.43" shape="22.89,213.85 20.69,218.41" speed="13.89"/>
   </edge>
   <edge function="internal" id=":1230459962_0">
      <lane disallow="tram rail_urban rail rail_electric ship" id=":1230459962_0_0" index="0" length="0.50" shape="48.94,179.28 48.59,180.08" speed="13.89"/>
      <lane disallow="tram rail_urban rail rail_electric ship" id=":1230459962_0_1" index="1" length="0.50" shape="45.87,178.08 45.62,178.65" speed="13.89"/>
      <lane disallow="tram rail_urban rail rail_electric ship" id=":1230459962_0_2" index="2" length="0.50" shape="42.79,176.88 42.64,177.22" speed="13.89"/>
      <lane disallow="tram rail_urban rail rail_electric ship" id=":1230459962_0_3" index="3" length="0.50" shape="39.72,175.68 39.67,175.79" speed="13.89"/>
   </edge>
   <edge function="internal" id=":1230460014_0">
      <lane disallow="tram rail_urban rail rail_electric ship" id=":1230460014_0_0" index="0" length="0.56" shape="29.69,149.75 29.95,149.67" speed="13.89"/>
      <lane disallow="tram rail_urban rail rail_electric ship" id=":1230460014_0_1" index="1" length="0.56" shape="30.35,152.98 31.15,152.75" speed="13.89"/>
   </edge>
   <edge function="internal" id=":1230460073_0">
      <lane disallow="tram rail_urban rail rail_electric ship" id=":1230460073_0_0" index="0" length="0.10" shape="77.29,91.33 77.29,91.33" speed="13.89"/>
   </edge>
   <edge function="internal" id=":1230460107_0">
      <lane disallow="tram rail_urban rail rail_electric ship" id=":1230460107_0_0" index="0" length="1.34" shape="23.89,169.46 25.76,171.10" speed="13.89"/>
      <lane disallow="tram rail_urban rail rail_electric ship" id=":1230460107_0_1" index="1" length="1.34" shape="22.04,172.19 22.93,172.80" speed="13.89"/>
      <lane disallow="tram rail_urban rail rail_electric ship" id=":1230460107_0_2" index="2" length="1.34" shape="20.18,174.92 20.10,174.49" speed="13.89"/>
   </edge>
   <edge function="internal" id=":1230460159_0">
      <lane disallow="tram rail_urban rail rail_electric ship" id=":1230460159_0_0" index="0" length="0.10" shape="39.82,207.50 39.82,207.50" speed="13.89"/>
   </edge>
   <edge function="internal" id=":1230460255_0">
      <lane disallow="tram rail_urban rail rail_electric ship" id=":1230460255_0_0" index="0" length="0.54" shape="45.20,197.94 45.04,197.86" speed="13.89"/>
      <lane disallow="tram rail_urban rail rail_electric ship" id=":1230460255_0_1" index="1" length="0.54" shape="46.87,195.09 46.39,194.85" speed="13.89"/>
      <lane disallow="tram rail_urban rail rail_electric ship" id=":1230460255_0_2" index="2" length="0.54" shape="48.54,192.25 47.74,191.83" speed="13.89"/>
   </edge>
   <edge function="internal" id=":1230460255_3">
      <lane disallow="tram rail_urban rail rail_electric ship" id=":1230460255_3_0" index="0" length="2.41" shape="48.54,192.25 47.90,190.91 47.96,189.99" speed="13.89"/>
   </edge>
   <edge function="internal" id=":1230460255_6">
      <lane id=":1230460255_6_0" index="0" length="2.41" shape="47.96,189.99 48.73,189.49 50.22,189.41" speed="13.89"/>
   </edge>
   <edge function="internal" id=":1230460255_4">
      <lane disallow="tram rail_urban rail rail_electric ship" id=":1230460255_4_0" index="0" length="1.27" shape="49.09,188.82 50.22,189.41" speed="13.89"/>
   </edge>
   <edge function="internal" id=":1230460255_5">
      <lane disallow="tram rail_urban rail rail_electric ship" id=":1230460255_5_0" index="0" length="2.41" shape="49.09,188.82 49.88,190.08 49.92,191.00" speed="13.89"/>
   </edge>
   <edge function="internal" id=":1230460255_7">
      <lane id=":1230460255_7_0" index="0" length="2.41" shape="49.92,191.00 49.21,191.59 47.74,191.83" speed="13.89"/>
   </edge>
   <edge function="internal" id=":1230460284_0">
      <lane disallow="tram rail_urban rail rail_electric ship" id=":1230460284_0_0" index="0" length="12.74" shape="74.56,216.47 73.53,213.67 75.67,210.09 77.79,206.96 76.71,205.51" speed="13.89"/>
   </edge>
   <edge function="internal" id=":1230460284_1">
      <lane disallow="tram rail_urban rail rail_electric ship" id=":1230460284_1_0" index="0" length="4.40" shape="74.56,216.47 73.76,212.33" speed="13.89"/>
      <lane disallow="tram rail_urban rail rail_electric ship" id=":1230460284_1_1" index="1" length="4.40" shape="76.13,213.56 75.07,209.30" speed="13.89"/>
      <lane disallow="tram rail_urban rail rail_electric ship" id=":1230460284_1_2" index="2" length="4.40" shape="77.70,210.66 76.38,206.27" speed="13.89"/>
   </edge>
   <edge function="internal" id=":1230460284_4">
      <lane disallow="tram rail_urban rail rail_electric ship" id=":1230460284_4_0" index="0" length="2.41" shape="79.28,207.76 78.58,206.45 78.61,205.52" speed="13.89"/>
   </edge>
   <edge function="internal" id=":1230460284_6">
      <lane id=":1230460284_6_0" index="0" length="2.41" shape="78.61,205.52 79.37,205.00 80.85,204.86" speed="13.89"/>
   </edge>
   <edge function="internal" id=":1230460284_5">
      <lane disallow="tram rail_urban rail rail_electric ship" id=":1230460284_5_0" index="0" length="2.94" shape="78.24,203.51 80.85,204.86" speed="13.89"/>
   </edge>
   <edge function="internal" id=":1230460337_0">
      <lane disallow="tram rail_urban rail rail_electric ship" id=":1230460337_0_0" index="0" length="0.10" shape="196.29,224.26 196.29,224.26" speed="8.33"/>
   </edge>
   <edge function="internal" id=":1230460457_0">
      <lane disallow="tram rail_urban rail rail_electric ship" id=":1230460457_0_0" index="0" length="0.10" shape="139.12,232.33 139.12,232.33" speed="13.89"/>
   </edge>
   <edge function="internal" id=":1230460528_0">
      <lane disallow="tram rail_urban rail rail_electric ship" id=":1230460528_0_0" index="0" length="0.10" shape="34.09,148.05 34.04,148.08" speed="13.89"/>
      <lane disallow="tram rail_urban rail rail_electric ship" id=":1230460528_0_1" index="1" length="0.10" shape="35.32,151.12 35.32,151.11" speed="13.89"/>
   </edge>
   <edge function="internal" id=":1230460576_0">
      <lane disallow="tram rail_urban rail rail_electric ship" id=":1230460576_0_0" index="0" length="1.35" shape="20.28,181.97 18.20,181.51" speed="13.89"/>
      <lane disallow="tram rail_urban rail rail_electric ship" id=":1230460576_0_1" index="1" length="1.35" shape="20.14,178.68 19.59,178.52" speed="13.89"/>
   </edge>
   <edge function="internal" id=":1230460613_0">
      <lane disallow="tram rail_urban rail rail_electric ship" id=":1230460613_0_0" index="0" length="0.58" shape="35.14,208.95 34.63,209.22" speed="13.89"/>
   </edge>
   <edge function="internal" id=":1230460757_0">
      <lane disallow="tram rail_urban rail rail_electric ship" id=":1230460757_0_0" index="0" length="11.35" shape="34.13,148.03 42.66,142.87" speed="13.89"/>
      <lane disallow="tram rail_urban rail rail_electric ship" id=":1230460757_0_1" index="1" length="11.35" shape="35.41,151.07 39.00,149.77 41.61,148.85 43.68,147.36 45.62,144.33" speed="13.89"/>
   </edge>
   <edge function="internal" id=":1230460757_2">
      <lane disallow="tram rail_urban rail rail_electric ship" id=":1230460757_2_0" index="0" length="12.95" shape="36.99,154.52 38.67,151.06 39.81,148.69 40.97,146.32 42.66,142.87" speed="13.89"/>
      <lane disallow="tram rail_urban rail rail_electric ship" id=":1230460757_2_1" index="1" length="12.95" shape="39.96,155.96 41.63,152.50 42.78,150.14 43.93,147.77 45.62,144.33" speed="13.89"/>
   </edge>
   <edge function="internal" id=":1230460826_0">
      <lane disallow="tram rail_urban rail rail_electric ship" id=":1230460826_0_0" index="0" length="0.36" shape="16.05,180.51 15.57,180.25" speed="13.89"/>
      <lane disallow="tram rail_urban rail rail_electric ship" id=":1230460826_0_1" index="1" length="0.36" shape="17.44,177.52 17.29,177.43" speed="13.89"/>
   </edge>
   <edge function="internal" id=":1230460834_0">
      <lane disallow="tram rail_urban rail rail_electric ship" id=":1230460834_0_0" index="0" length="0.10" shape="95.22,206.25 95.21,206.26" speed="13.89"/>
   </edge>
   <edge function="internal" id=":1241277570_0">
      <lane disallow="tram rail_urban rail rail_electric ship" id=":1241277570_0_0" index="0" length="0.49" shape="21.66,151.08 21.90,151.07" speed="13.89"/>
      <lane disallow="tram rail_urban rail rail_electric ship" id=":1241277570_0_1" index="1" length="0.49" shape="21.61,154.38 22.34,154.34" speed="13.89"/>
   </edge>
   <edge function="internal" id=":1241277594_0">
      <lane disallow="tram rail_urban rail rail_electric ship" id=":1241277594_0_0" index="0" length="0.12" shape="19.32,166.51 19.45,166.59" speed="13.89"/>
      <lane disallow="tram rail_urban rail rail_electric ship" id=":1241277594_0_1" index="1" length="0.12" shape="17.59,169.32 17.59,169.32" speed="13.89"/>
      <lane disallow="tram rail_urban rail rail_electric ship" id=":1241277594_0_2" index="2" length="0.12" shape="15.77,172.08 15.82,172.11" speed="13.89"/>
   </edge>
   <edge function="internal" id=":1241277608_0">
      <lane disallow="tram rail_urban rail rail_electric ship" id=":1241277608_0_0" index="0" length="0.22" shape="25.73,150.55 25.84,150.53" speed="13.89"/>
      <lane disallow="tram rail_urban rail rail_electric ship" id=":1241277608_0_1" index="1" length="0.22" shape="26.17,153.82 26.50,153.77" speed="13.89"/>
   </edge>
   <edge function="internal" id=":1241277612_0">
      <lane disallow="tram rail_urban rail rail_electric ship" id=":1241277612_0_0" index="0" length="0.10" shape="16.80,164.82 16.80,164.83" speed="13.89"/>
      <lane disallow="tram rail_urban rail rail_electric ship" id=":1241277612_0_1" index="1" length="0.10" shape="14.97,167.57 14.97,167.57" speed="13.89"/>
      <lane disallow="tram rail_urban rail rail_electric ship" id=":1241277612_0_2" index="2" length="0.10" shape="13.15,170.32 13.13,170.31" speed="13.89"/>
   </edge>
   <edge function="internal" id=":1313365815_0">
      <lane disallow="tram rail_urban rail rail_electric ship" id=":1313365815_0_0" index="0" length="0.10" shape="511.42,473.27 511.42,473.27" speed="8.33"/>
   </edge>
   <edge function="internal" id=":1313365829_0">
      <lane disallow="tram rail_urban rail rail_electric ship" id=":1313365829_0_0" index="0" length="9.79" shape="528.88,465.24 521.01,459.42" speed="7.64"/>
   </edge>
   <edge function="internal" id=":1313365829_1">
      <lane disallow="tram rail_urban rail rail_electric ship" id=":1313365829_1_0" index="0" length="5.63" shape="528.88,465.24 526.59,463.06 525.70,460.76" speed="4.86"/>
   </edge>
   <edge function="internal" id=":1313365829_2">
      <lane disallow="tram rail_urban rail rail_electric ship" id=":1313365829_2_0" index="0" length="2.41" shape="528.88,465.24 528.35,463.85 528.49,462.94" speed="1.39"/>
   </edge>
   <edge function="internal" id=":1313365829_12">