<?xml version="1.0" encoding="utf-8"?><!-- generated on 10/11/17 17:56:36 by SUMO polyconvert Version 0.25.0
<?xml version="1.0" encoding="UTF-8"?>

<configuration xmlns:xsi="http://www.w3.org/2001/XMLSchema-instance" xsi:noNamespaceSchemaLocation="http://sumo.dlr.de/xsd/polyconvertConfiguration.xsd">

    <input>
        <net-file value="M_Altstadt_historical_800.net.xml"/>
        <osm-files value="M_Altstadt_historical_800.osm"/>
        <type-file value="osmPolyconvert.typ.xml"/>
    </input>

    <output>
        <output-file value="M_Altstadt_historical_800.poly.xml"/>
    </output>

    <projection>
        <proj.utm value="true"/>
    </projection>

    <processing>
        <poi-layer-offset value="5"/>
    </processing>

</configuration>
-->
<additional>
   <location convBoundary="-4.28,-13.85,821.04,809.71" netOffset="-690930.73,-5334132.41" origBoundary="11.566430,48.131630,11.577237,48.138828" projParameter="+proj=utm +zone=32 +ellps=WGS84 +datum=WGS84 +units=m +no_defs"/>
   <poly color="red" fill="1" id="100318387" layer="-1.00" shape="715.49,89.10 730.33,88.33 731.35,108.13 716.52,108.90 715.49,89.10" type="building"/>
   <poly color="red" fill="1" id="100318390" layer="-1.00" shape="717.86,57.16 711.93,53.75 707.88,51.09 704.49,54.58 691.44,67.70 687.68,71.56 696.49,80.74 702.41,75.05 707.34,70.22 712.37,71.94 717.86,57.16" type="building"/>
   <poly color="red" fill="1" id="100318396" layer="-1.00" shape="712.37,71.94 714.46,72.82 715.49,89.10 730.33,88.33 728.82,59.32 722.98,58.43 717.86,57.16 712.37,71.94" type="building"/>
   <poly color="red" fill="1" id="100318403" layer="-1.00" shape="623.50,231.06 617.95,224.79 613.06,230.22 609.07,235.77 617.65,244.81 623.50,231.06" type="building"/>
   <poly color="red" fill="1" id="100900834" layer="-1.00" shape="800.40,184.75 796.51,194.37 807.32,198.75 812.72,185.39 808.91,183.85 807.40,187.58 800.40,184.75" type="building"/>
   <poly color="red" fill="1" id="100900839" layer="-1.00" shape="766.78,145.91 772.24,157.20 792.10,147.61 785.79,134.79 769.89,142.68 766.15,144.59 766.78,145.91" type="building"/>
   <poly color="red" fill="1" id="100900850" layer="-1.00" shape="633.39,175.61 645.07,165.53 633.16,151.73 621.49,161.80 633.39,175.61" type="building"/>
   <poly color="red" fill="1" id="100900853" layer="-1.00" shape="732.40,128.39 717.58,129.16 717.93,135.85 718.44,145.88 718.69,150.63 733.52,149.85 732.40,128.39" type="building"/>
   <poly color="red" fill="1" id="100900856" layer="-1.00" shape="670.70,182.24 668.23,167.45 668.06,166.42 653.26,169.17 650.00,169.78 645.07,165.53 633.39,175.61 642.72,185.66 645.48,186.52 670.70,182.24" type="building"/>
   <poly color="red" fill="1" id="100900857" layer="-1.00" shape="789.31,191.68 793.41,181.96 791.81,181.36 791.30,174.48 793.08,173.56 788.60,164.36 770.12,174.09 771.08,184.27 789.31,191.68" type="building"/>
   <poly color="red" fill="1" id="100900858" layer="-1.00" shape="631.86,128.12 641.73,137.87 642.86,138.97 651.76,129.96 640.77,119.10 637.95,121.95 631.86,128.12" type="building"/>
   <poly color="red" fill="1" id="100900859" layer="-1.00" shape="658.64,100.99 667.72,109.92 671.96,105.69 677.96,99.69 681.82,95.84 672.94,86.50 665.59,93.95 658.64,100.99" type="building"/>
   <poly color="red" fill="1" id="100900862" layer="-1.00" shape="733.52,149.85 718.69,150.63 719.69,157.79 718.69,158.98 709.73,160.21 711.85,175.26 734.64,171.39 733.52,149.85" type="building"/>
   <poly color="red" fill="1" id="100900864" layer="-1.00" shape="792.10,147.61 810.49,138.61 804.18,125.80 790.19,132.64 785.79,134.79 792.10,147.61" type="building"/>
   <poly color="red" fill="1" id="100900869" layer="-1.00" shape="815.03,125.00 817.08,127.20 814.86,127.85 814.13,125.97 813.07,125.97 811.37,127.21 811.27,128.19 809.48,129.10 807.91,124.32 804.18,125.80 810.49,138.61 815.03,125.00" type="building"/>
   <poly color="red" fill="1" id="100900872" layer="-1.00" shape="621.49,161.80 633.16,151.73 629.96,149.17 641.73,137.87 631.86,128.12 612.23,147.75 612.27,151.32 621.49,161.80" type="building"/>
   <poly color="red" fill="1" id="100900884" layer="-1.00" shape="681.82,95.84 692.26,85.11 696.49,80.74 687.68,71.56 681.57,77.75 672.94,86.50 681.82,95.84" type="building"/>
   <poly color="red" fill="1" id="100900887" layer="-1.00" shape="812.72,185.39 807.32,198.75 812.72,185.39" type="building"/>
   <poly color="red" fill="1" id="100900889" layer="-1.00" shape="685.71,163.90 677.68,165.54 668.23,167.45 670.70,182.24 687.89,179.32 685.71,163.90" type="building"/>
   <poly color="red" fill="1" id="100900891" layer="-1.00" shape="815.21,168.61 808.57,155.03 815.21,168.61" type="building"/>
   <poly color="red" fill="1" id="100900896" layer="-1.00" shape="640.77,119.10 651.76,129.96 654.06,127.62 655.50,129.05 662.23,122.22 649.80,109.95 642.94,116.89 640.77,119.10" type="building"/>
   <poly color="red" fill="1" id="100900904" layer="-1.00" shape="815.21,168.61 808.57,155.03 793.29,162.49 799.59,175.37 801.25,175.43 815.21,168.61" type="building"/>
   <poly color="red" fill="1" id="100900905" layer="-1.00" shape="649.80,109.95 662.23,122.22 671.04,113.30 667.72,109.92 658.64,100.99 653.38,106.31 649.80,109.95" type="building"/>
   <poly color="red" fill="1" id="100900910" layer="-1.00" shape="731.35,108.13 716.52,108.90 716.75,113.24 717.58,129.16 732.40,128.39 731.35,108.13" type="building"/>
   <poly color="red" fill="1" id="108235058" layer="-1.00" shape="178.95,41.03 159.57,63.82 162.03,66.97 170.26,73.83 185.97,54.98 178.95,41.03" type="building"/>
   <poly color="red" fill="0" id="108235062" layer="-1.00" shape="325.35,0.77 334.25,2.24 348.17,9.35 357.02,-2.97 359.06,-1.11" type="building"/>
   <poly color="red" fill="1" id="108235069" layer="-1.00" shape="417.82,47.55 412.20,42.14 416.84,37.32 422.48,42.71 417.82,47.55" type="building"/>
   <poly color="red" fill="1" id="108235081" layer="-1.00" shape="54.72,34.80 52.77,25.27 55.99,24.62 52.92,9.62 40.91,12.07 45.93,36.59 54.72,34.80" type="building"/>
   <poly color="red" fill="1" id="108235082" layer="-1.00" shape="233.30,31.31 226.45,17.70 212.22,24.81 219.07,38.43 233.30,31.31" type="building"/>
   <poly color="red" fill="1" id="108235088" layer="-1.00" shape="45.93,36.59 47.65,45.13 48.62,49.90 50.84,49.40 52.69,57.12 53.63,58.04 54.91,58.41 56.13,57.88 69.83,41.61 62.85,35.50 54.72,34.80 45.93,36.59" type="building"/>
   <poly color="red" fill="1" id="108235091" layer="-1.00" shape="72.81,-6.64 73.60,8.43 75.06,8.24 87.27,7.44 86.71,-7.30 72.81,-6.64" type="building"/>
   <poly color="red" fill="1" id="108235096" layer="-1.00" shape="608.64,19.95 616.33,29.67 632.54,14.17 624.01,5.23 612.48,16.23 608.64,19.95" type="building"/>
   <poly color="red" fill="1" id="108235097" layer="-1.00" shape="542.99,44.62 564.43,26.82 551.32,11.12 542.76,18.23 529.88,28.91 542.99,44.62" type="building"/>
   <poly color="red" fill="1" id="108235100" layer="-1.00" shape="108.25,58.48 106.89,59.12 126.13,86.08 135.33,79.81 117.67,53.95 108.25,58.48" type="building"/>
   <poly color="red" fill="1" id="108235101" layer="-1.00" shape="251.95,22.03 299.39,-0.54 300.46,-3.87 257.02,-0.87 257.61,3.36 245.81,9.47 251.95,22.03" type="building"/>
   <poly color="red" fill="1" id="108235111" layer="-1.00" shape="79.36,31.54 87.02,22.31 87.71,20.73 88.03,18.56 87.27,7.44 75.06,8.24 75.38,17.83 70.88,24.75 79.36,31.54" type="building"/>
   <poly color="red" fill="1" id="108235114" layer="-1.00" shape="419.35,57.76 411.55,66.00 430.31,83.63 438.49,75.80 433.98,71.48 419.35,57.76" type="building"/>
   <poly color="red" fill="1" id="108235117" layer="-1.00" shape="131.82,23.83 126.30,15.86 134.51,4.64 126.44,-3.92 111.93,15.75 120.84,30.45 131.82,23.83" type="building"/>
   <poly color="red" fill="1" id="108235118" layer="-1.00" shape="142.25,41.51 147.39,38.21 148.15,40.66 175.88,34.38 173.37,29.01 168.47,29.26 160.13,6.92 141.12,14.25 147.08,29.72 146.08,34.64 142.83,37.17 141.92,35.79 139.12,37.48 142.25,41.51" type="building"/>
   <poly color="red" fill="0" id="108235125" layer="-1.00" shape="72.81,-6.64 86.71,-7.30" type="building"/>
   <poly color="red" fill="1" id="108235129" layer="-1.00" shape="193.83,51.04 186.98,37.44 182.33,28.21 177.27,30.74 181.74,39.64 178.95,41.03 185.97,54.98 193.83,51.04" type="building"/>
   <poly color="red" fill="1" id="108235131" layer="-1.00" shape="399.68,28.36 386.39,42.25 397.72,53.00 409.99,40.01 399.68,28.36" type="building"/>
   <poly color="red" fill="1" id="108235138" layer="-1.00" shape="472.89,101.91 482.55,91.54 469.05,78.64 451.72,62.06 447.51,66.43 441.73,72.44 457.17,87.55 472.89,101.91" type="building"/>
   <poly color="red" fill="1" id="108235141" layer="-1.00" shape="386.47,24.24 379.01,17.14 369.94,26.60 386.39,42.25 399.68,28.36 393.94,22.89 387.45,29.67 384.22,26.59 386.47,24.24" type="building"/>
   <poly color="red" fill="1" id="108235143" layer="-1.00" shape="89.57,69.12 99.27,56.39 97.47,55.08 88.23,48.02 78.53,60.76 89.57,69.12" type="building"/>
   <poly color="red" fill="1" id="108235148" layer="-1.00" shape="150.49,73.13 141.68,63.09 128.86,43.67 139.12,37.48 142.25,41.51 159.57,63.82 162.03,66.97 150.49,73.13" type="building"/>
   <poly color="red" fill="1" id="108235150" layer="-1.00" shape="128.86,43.67 139.12,37.48 141.92,35.79 133.90,22.57 131.82,23.83 120.84,30.45 128.86,43.67" type="building"/>
   <poly color="red" fill="1" id="108235151" layer="-1.00" shape="78.53,60.76 67.49,75.25 78.53,83.61 89.57,69.12 78.53,60.76" type="building"/>
   <poly color="red" fill="1" id="108235153" layer="-1.00" shape="69.83,41.61 70.76,42.61 79.36,31.54 70.88,24.75 66.42,30.31 62.85,35.50 69.83,41.61" type="building"/>
   <poly color="red" fill="1" id="108235162" layer="-1.00" shape="447.51,66.43 451.72,62.06 462.19,51.18 470.86,42.16 464.09,35.69 456.10,44.00 458.78,46.55 443.41,62.51 447.51,66.43" type="building"/>
   <poly color="red" fill="1" id="108235179" layer="-1.00" shape="456.10,44.00 464.09,35.69 451.93,24.06 443.23,33.10 445.66,35.43 444.16,36.99 452.70,45.17 454.92,42.86 456.10,44.00" type="building"/>
   <poly color="red" fill="0" id="108235181" layer="-1.00" shape="314.51,-1.16 316.74,1.15 325.35,0.77" type="building"/>
   <poly color="red" fill="1" id="108235183" layer="-1.00" shape="438.49,75.80 441.73,72.44 447.51,66.43 443.41,62.51 433.12,52.67 428.32,57.66 438.17,67.13 433.98,71.48 438.49,75.80" type="building"/>
   <poly color="red" fill="1" id="108235187" layer="-1.00" shape="397.72,53.00 411.55,66.00 419.35,57.76 413.33,52.11 417.82,47.55 412.20,42.14 409.99,40.01 397.72,53.00" type="building"/>
   <poly color="red" fill="0" id="108235200" layer="-1.00" shape="466.97,10.88 475.48,1.05" type="building"/>
   <poly color="red" fill="1" id="108235201" layer="-1.00" shape="433.34,28.14 442.68,18.43 428.91,5.26 419.57,14.98 433.34,28.14" type="building"/>
   <poly color="red" fill="0" id="108235202" layer="-1.00" shape="38.40,-0.16 52.16,-2.95 53.58,-3.24 51.75,-13.01 55.94,-13.85" type="building"/>
   <poly color="red" fill="1" id="108235206" layer="-1.00" shape="212.22,24.81 186.98,37.44 193.83,51.04 219.07,38.43 212.22,24.81" type="building"/>
   <poly color="red" fill="1" id="108235210" layer="-1.00" shape="237.50,30.06 249.15,24.23 243.70,13.40 232.06,19.22 237.50,30.06" type="building"/>
   <poly color="red" fill="1" id="108235212" layer="-1.00" shape="469.05,78.64 482.55,91.54 502.27,70.56 470.86,42.16 462.19,51.18 479.52,67.76 469.05,78.64" type="building"/>
   <poly color="red" fill="1" id="108235214" layer="-1.00" shape="38.40,-0.16 39.45,4.98 40.91,12.07 52.92,9.62 54.67,9.27 52.16,-2.95 38.40,-0.16" type="building"/>
   <poly color="red" fill="1" id="108235215" layer="-1.00" shape="479.75,13.15 472.39,7.04 479.75,13.15" type="building"/>
   <poly color="red" fill="1" id="108235219" layer="-1.00" shape="595.19,4.13" type="building"/>
   <poly color="red" fill="0" id="108235220" layer="-1.00" shape="814.68,179.73 815.57,177.20" type="building"/>
   <poly color="red" fill="1" id="108235226" layer="-1.00" shape="428.32,57.66 417.82,47.55 422.48,42.71 444.83,19.48 450.19,24.60 427.95,47.72 433.12,52.67 428.32,57.66" type="building"/>
   <poly color="red" fill="0" id="108338021" layer="-1.00" shape="776.49,13.41 775.09,27.29 790.82,29.24 792.26,29.18" type="building"/>
   <poly color="237,199,199" fill="0" id="108338026" layer="-1.00" shape="805.41,72.39 790.18,57.07 798.10,49.15 798.95,48.35 810.84,60.30 814.65,56.50 815.68,57.53 816.80,58.66 818.08,59.94" type="amenity"/>
   <poly color="red" fill="1" id="108338030" layer="-1.00" shape="769.75,41.40 774.08,32.74 775.09,27.29 790.82,29.24 790.84,30.61 792.57,30.60 792.63,38.24 791.19,38.24 791.20,39.91 792.86,39.90 792.87,41.73 791.55,41.74 791.54,42.21 796.86,46.92 796.37,47.61 798.10,49.15 790.18,57.07 787.47,59.65 769.75,41.40" type="building"/>
   <poly color="red" fill="1" id="108574560" layer="-1.00" shape="711.37,221.60 698.95,233.42 707.97,242.85 720.40,231.02 711.37,221.60" type="building"/>
   <poly color="red" fill="1" id="108574573" layer="-1.00" shape="716.52,108.90 716.75,113.24 707.91,113.17 708.02,117.02 693.58,117.02 694.15,115.57 696.49,109.64 716.52,108.90" type="building"/>
   <poly color="red" fill="1" id="108574574" layer="-1.00" shape="696.49,80.74 699.60,84.45 697.61,86.43 703.47,91.97 696.49,109.64 691.00,104.78 697.03,89.41 692.26,85.11 696.49,80.74" type="building"/>
   <poly color="red" fill="1" id="108574577" layer="-1.00" shape="447.17,232.23 451.39,255.70 453.65,257.12 474.24,248.78 477.87,243.82 462.97,229.01 447.17,232.23" type="building"/>
   <poly color="red" fill="1" id="108574612" layer="-1.00" shape="716.52,108.90 696.49,109.64 703.47,91.97 705.28,87.40 715.49,89.10 716.52,108.90" type="building"/>
   <poly color="red" fill="1" id="108574614" layer="-1.00" shape="515.08,275.01 507.19,279.56 513.87,292.46 516.21,296.81 513.29,298.70 500.85,306.88 498.94,302.73 487.20,276.58 490.88,275.24 493.08,274.46 496.91,273.07 508.59,266.78 510.09,268.92 511.19,268.27 515.08,275.01" type="building"/>
   <poly color="red" fill="1" id="108574620" layer="-1.00" shape="703.14,161.14 701.95,152.85 693.86,153.32 694.72,162.62 685.71,163.90 687.89,179.32 711.85,175.26 709.73,160.21 703.14,161.14" type="building"/>
   <poly color="red" fill="1" id="108574639" layer="-1.00" shape="496.91,273.07 508.59,266.78 514.47,262.44 522.28,256.04 514.30,247.74 495.06,266.59 496.91,273.07" type="building"/>
   <poly color="red" fill="1" id="108574681" layer="-1.00" shape="681.82,95.84 691.00,104.78 696.49,109.64 694.15,115.57 677.96,99.69 681.82,95.84" type="building"/>
   <poly color="red" fill="1" id="108574683" layer="-1.00" shape="534.47,312.68 525.16,319.58 535.11,330.98 538.69,331.43 548.11,325.82 540.92,314.97 539.99,318.59 534.47,312.68" type="building"/>
   <poly color="red" fill="1" id="108574738" layer="-1.00" shape="540.92,314.97 548.11,325.82 554.96,321.31 559.24,318.50 552.05,307.64 550.58,308.62 545.99,311.63 543.54,313.24 540.92,314.97" type="building"/>
   <poly color="red" fill="1" id="111551101" layer="-1.00" shape="534.53,93.42 527.15,101.48 521.51,110.09 514.07,121.69 521.59,129.09 521.64,132.27 526.74,132.33 541.54,118.27 548.33,125.73 556.75,117.90 534.53,93.42" type="building"/>
   <poly color="red" fill="1" id="114565539" layer="-1.00" shape="224.08,7.06 220.07,-2.72 204.25,3.71 211.70,21.88 216.50,19.93 213.06,11.54 224.08,7.06" type="building"/>
   <poly color="red" fill="1" id="114565540" layer="-1.00" shape="219.48,-5.00" type="building"/>
   <poly color="red" fill="1" id="114565543" layer="-1.00" shape="161.27,8.58 170.20,4.69 164.51,-10.63 154.43,-7.78 161.27,8.58" type="building"/>
   <poly color="red" fill="0" id="114565546" layer="-1.00" shape="197.73,-8.57 202.85,4.04 193.73,7.72" type="building"/>
   <poly color="red" fill="1" id="114565547" layer="-1.00" shape="126.44,-3.92 161.33,-10.93 153.74,-11.19 137.13,7.57 134.51,4.64 126.44,-3.92" type="building"/>
   <poly color="237,199,199" fill="1" id="117873670" layer="-1.00" shape="721.31,631.51 721.25,630.91 721.53,629.91 722.14,629.21 722.90,628.83 723.61,628.76 724.23,628.89 725.06,629.39 725.44,629.90 725.62,630.30 725.73,631.10 725.66,631.54 725.46,632.07 724.93,632.71 724.37,633.05 723.75,633.21 722.91,633.15 722.15,632.79 721.63,632.24 721.31,631.51" type="amenity"/>
   <poly color="207,245,201" fill="1" id="117873670#1" layer="-2.00" shape="721.31,631.51 721.25,630.91 721.53,629.91 722.14,629.21 722.90,628.83 723.61,628.76 724.23,628.89 725.06,629.39 725.44,629.90 725.62,630.30 725.73,631.10 725.66,631.54 725.46,632.07 724.93,632.71 724.37,633.05 723.75,633.21 722.91,633.15 722.15,632.79 721.63,632.24 721.31,631.51" type="tourism"/>
   <poly color="red" fill="1" id="120048533" layer="-1.00" shape="673.22,254.24 664.91,262.15 675.78,273.49 684.08,265.59 673.22,254.24" type="building"/>
   <poly color="red" fill="1" id="120048535" layer="-1.00" shape="673.22,254.24 676.63,251.01 684.55,243.46 695.41,254.80 684.08,265.59 673.22,254.24" type="building"/>
   <poly color="red" fill="1" id="120048539" layer="-1.00" shape="684.55,243.46 695.41,254.80 707.97,242.85 698.95,233.42 697.12,231.50 684.55,243.46" type="building"/>
   <poly color="red" fill="0" id="120183479" layer="-1.00" shape="106.03,-0.62 101.11,-2.18" type="building"/>
   <poly color="red" fill="0" id="120311987" layer="-1.00" shape="22.54,18.01 26.03,32.50" type="building"/>
   <poly color="237,199,199" fill="1" id="125213617" layer="-1.00" shape="128.50,784.83" type="amenity"/>
   <poly color="red" fill="1" id="125213617#1" layer="-1.00" shape="128.50,784.83" type="building"/>
   <poly color="red" fill="1" id="125213620" layer="-1.00" shape="309.10,756.63 318.23,780.34 335.22,774.12 348.47,769.27 373.88,759.96 372.76,757.03 381.75,752.10 384.48,745.88 382.14,740.85 379.35,739.85 376.55,738.85 373.54,739.94 367.12,742.27 364.84,736.40 364.69,736.01 309.10,756.63" type="building"/>
   <poly color="181,209,209" fill="0" id="127788282" layer="-4.00" shape="159.69,82.48 84.91,250.87 64.56,294.79" type="water"/>
   <poly color="red" fill="1" id="144060829" layer="-1.00" shape="628.80,252.80 616.78,263.90 627.97,275.21 638.67,264.82 634.49,260.87 638.59,257.45 628.80,252.80" type="building"/>
   <poly color="red" fill="1" id="144066375" layer="-1.00" shape="142.97,139.73 144.12,140.26 155.40,145.46 160.41,147.76 166.19,135.28 148.75,127.24 142.97,139.73" type="building"/>
   <poly color="red" fill="1" id="144066376" layer="-1.00" shape="144.12,140.26 141.74,145.41 153.02,150.59 155.40,145.46 144.12,140.26" type="building"/>
   <poly color="red" fill="1" id="144071012" layer="-1.00" shape="436.07,194.74 433.90,184.22 433.09,182.01 368.59,189.39 339.71,81.73 338.84,74.29 346.81,69.65 352.14,79.16 358.56,75.30 353.32,65.88 362.82,60.35 371.68,70.93 520.88,210.44 493.18,239.20 474.27,260.59 450.53,270.92 445.67,241.52 441.32,229.75 459.06,226.21 466.69,225.51 467.06,221.74 469.84,220.52 480.53,224.25 494.06,211.36 457.66,176.83 440.90,194.23 436.07,194.74" type="building"/>
   <poly color="red" fill="0" id="144071650" layer="-1.00" shape="364.85,293.53 365.56,295.39 354.61,310.59 329.28,277.00" type="building"/>
   <poly color="red" fill="1" id="144071931" layer="-1.00" shape="303.72,233.16 316.61,223.41 322.16,236.91 312.86,244.72 304.79,234.50 303.72,233.16" type="building"/>
   <poly color="red" fill="1" id="144102414" layer="-1.00" shape="785.32,275.60 785.53,280.80 786.19,280.78 786.69,281.33 786.69,282.26 786.28,282.90 785.61,282.92 785.76,286.26 780.48,286.49 780.52,287.29 779.89,287.98 778.67,288.04 777.78,287.41 777.75,286.60 775.31,286.70 775.26,285.60 774.32,276.06 777.31,275.93 777.29,275.49 778.04,274.83 779.25,274.77 780.02,275.37 780.04,275.83 785.32,275.60" type="building"/>
   <poly color="red" fill="1" id="144102844" layer="-1.00" shape="799.77,255.90 800.50,256.84 801.81,258.53 802.61,257.91 804.17,259.92 803.38,260.54 810.84,270.16 808.54,282.13 807.95,280.57 805.52,281.97 804.14,279.59 802.94,280.33 801.56,277.95 802.40,277.34 791.75,263.63 777.73,257.98 773.23,258.08 772.56,247.10 779.32,247.26 783.08,248.86 783.47,247.94 785.99,249.01 785.60,249.93 793.45,253.27 793.90,252.22 796.36,253.27 795.91,254.32 799.77,255.90" type="building"/>
   <poly color="red" fill="1" id="144103903" layer="-1.00" shape="765.79,220.55 777.92,227.16 778.39,234.38 771.83,235.02 755.69,235.66 754.48,214.65 759.24,208.40 765.79,220.55" type="building"/>
   <poly color="red" fill="1" id="144103905" layer="-1.00" shape="776.82,215.27 772.21,213.23 772.20,215.56 770.30,217.34 768.84,217.10 765.79,220.55 759.24,208.40 768.69,200.25 780.72,204.73 776.82,215.27" type="building"/>
   <poly color="red" fill="1" id="144105084" layer="-1.00" shape="727.73,222.79 713.50,219.08 711.37,221.60 720.40,231.02 727.73,222.79" type="building"/>
   <poly color="red" fill="1" id="144135885" layer="-1.00" shape="603.09,738.84 602.26,735.13 578.92,741.36 581.91,752.82 594.60,749.75 594.94,751.15 597.25,763.29 610.96,760.19 611.76,758.01 610.77,755.71 615.71,754.47 612.77,744.68 604.42,747.15 603.09,738.84" type="building"/>
   <poly color="red" fill="1" id="144135890" layer="-1.00" shape="628.60,777.85 653.12,776.74 647.38,755.32 623.83,761.02 628.60,777.85" type="building"/>
   <poly color="red" fill="1" id="144135891" layer="-1.00" shape="612.77,744.68 615.71,754.47 626.74,752.13 627.52,755.16 630.83,754.30 645.60,750.97 641.77,737.18 612.77,744.68" type="building"/>
   <poly color="red" fill="1" id="148099019" layer="-1.00" shape="398.76,377.84 405.56,371.24 408.43,368.46 416.02,361.10 413.36,357.55 411.15,354.60 399.18,365.91 401.99,368.73 400.50,370.05 397.06,367.75 391.75,372.81 398.76,377.84" type="building"/>
   <poly color="red" fill="1" id="150797496" layer="-1.00" shape="555.42,737.20 563.97,735.38 559.99,718.70 550.16,720.33 555.42,737.20" type="building"/>
   <poly color="red" fill="1" id="150797503" layer="-1.00" shape="569.30,712.25 567.89,705.37 561.01,706.22 562.94,713.69 569.30,712.25" type="building"/>
   <poly color="red" fill="1" id="152135424" layer="-1.00" shape="599.26,225.09 592.37,218.60 601.85,208.94 604.26,211.42 605.13,210.49 614.79,221.11 617.95,224.79 613.06,230.22 603.98,220.29 599.26,225.09" type="building"/>
   <poly color="237,199,199" fill="1" id="163424410" layer="-1.00" shape="26.89,134.11 24.73,132.90 36.99,113.25 41.95,103.30 46.21,92.36 47.88,93.31 44.28,104.03 39.05,114.86 26.89,134.11" type="amenity"/>
   <poly color="red" fill="1" id="176583561" layer="-1.00" shape="452.26,370.52 441.61,384.75 473.62,407.94 472.79,409.03 483.80,417.05 490.04,421.60 526.77,448.40 549.11,427.75 561.45,420.97 569.65,416.38 563.71,403.68 557.91,406.15 537.88,367.77 541.82,365.84 535.96,353.58 517.40,362.88 513.40,364.82 509.19,358.29 509.31,356.51 511.61,355.04 512.04,353.04 511.32,351.29 509.20,350.42 505.90,352.29 498.58,339.32 469.15,353.40 458.52,363.81 469.53,377.47 472.14,375.93 473.23,377.33 481.86,369.67 497.43,361.98 506.85,372.95 504.03,375.69 497.41,383.08 496.10,381.96 493.58,384.69 490.88,387.60 492.37,388.82 485.67,395.76 452.26,370.52" type="building"/>
   <poly color="207,245,201" fill="1" id="176583561#1" layer="-2.00" shape="452.26,370.52 441.61,384.75 473.62,407.94 472.79,409.03 483.80,417.05 490.04,421.60 526.77,448.40 549.11,427.75 561.45,420.97 569.65,416.38 563.71,403.68 557.91,406.15 537.88,367.77 541.82,365.84 535.96,353.58 517.40,362.88 513.40,364.82 509.19,358.29 509.31,356.51 511.61,355.04 512.04,353.04 511.32,351.29 509.20,350.42 505.90,352.29 498.58,339.32 469.15,353.40 458.52,363.81 469.53,377.47 472.14,375.93 473.23,377.33 481.86,369.67 497.43,361.98 506.85,372.95 504.03,375.69 497.41,383.08 496.10,381.96 493.58,384.69 490.88,387.60 492.37,388.82 485.67,395.76 452.26,370.52" type="tourism"/>
   <poly color="red" fill="1" id="17952124" layer="-1.00" shape="566.37,279.30 596.18,309.26 636.59,349.69 642.04,355.14 660.91,336.40 655.09,330.58 615.59,291.05 585.12,260.58 566.37,279.30" type="building"/>
   <poly color="red" fill="1" id="191563473" layer="-1.00" shape="207.81,149.64 199.78,131.38 192.76,134.68 182.59,156.24 189.04,159.26 193.57,149.65 194.08,149.61 196.31,154.67 207.81,149.64" type="building"/>
   <poly color="red" fill="1" id="191563474" layer="-1.00" shape="176.85,201.85 173.63,199.61 164.23,195.19 176.51,169.16 187.80,174.45 180.07,190.85 186.43,194.73 176.85,201.85" type="building"/>
   <poly color="194,194,130" fill="1" id="193280330" layer="-3.00" shape="162.62,106.79 153.60,110.09 128.50,123.32 128.54,136.88 132.00,138.99 136.38,140.00 145.29,125.86 148.75,127.24 166.19,135.28 160.41,147.76 155.40,145.46 153.02,150.59 159.03,153.36 130.86,214.20 144.00,220.01 191.46,121.17 191.49,108.04 186.61,98.01 180.98,94.86 174.63,100.81 162.62,106.79" type="landuse"/>
   <poly color="red" fill="1" id="193280381" layer="-1.00" shape="334.08,144.07 330.29,128.89 318.38,132.05 322.97,147.72 334.08,144.07" type="building"/>
   <poly color="red" fill="1" id="193280382" layer="-1.00" shape="322.97,147.72 330.20,167.15 341.05,161.93 334.08,144.07 322.97,147.72" type="building"/>
   <poly color="red" fill="0" id="193288349" layer="-1.00" shape="23.95,331.96 27.33,324.67 28.86,321.38 8.18,311.84 12.64,302.23" type="building"/>
   <poly color="red" fill="1" id="219027187" layer="-1.00" shape="309.55,528.60 298.31,535.77 305.91,546.63 316.56,558.07 320.58,562.39 331.58,552.84 321.10,539.01 323.86,536.60 327.48,533.45 330.36,530.96 333.98,527.81 337.51,524.74 331.62,516.77 323.67,523.21 321.44,519.82 309.55,528.60" type="building"/>
   <poly color="red" fill="1" id="219027188" layer="-1.00" shape="290.96,522.94 298.31,535.77 309.55,528.60 302.51,516.36 290.96,522.94" type="building"/>
   <poly color="red" fill="1" id="219027189" layer="-1.00" shape="387.47,469.41 377.02,480.59 381.73,484.24 390.25,490.85 401.44,480.46 390.68,471.85 387.47,469.41" type="building"/>
   <poly color="red" fill="1" id="219027190" layer="-1.00" shape="402.40,436.85 408.35,428.45 399.44,422.16 393.48,430.56 402.40,436.85" type="building"/>
   <poly color="red" fill="1" id="219027191" layer="-1.00" shape="414.15,528.44 404.42,536.78 402.87,538.11 418.56,555.09 431.22,543.69 414.15,528.44" type="building"/>
   <poly color="red" fill="1" id="219027192" layer="-1.00" shape="365.33,569.11 381.20,588.20 384.54,585.44 391.60,579.59 399.27,573.26 383.41,554.18 365.33,569.11" type="building"/>
   <poly color="red" fill="1" id="219027193" layer="-1.00" shape="297.81,505.44 299.94,508.97 302.51,516.36 290.96,522.94 288.17,517.55 284.94,511.86 297.81,505.44" type="building"/>
   <poly color="red" fill="1" id="219027194" layer="-1.00" shape="314.62,568.70 299.44,577.53 296.49,572.44 304.10,568.35 309.32,563.42 314.62,568.70" type="building"/>
   <poly color="red" fill="1" id="219027195" layer="-1.00" shape="383.41,554.18 399.27,573.26 418.56,555.09 402.87,538.11 401.34,539.13 396.66,532.74 377.71,547.48 383.41,554.18" type="building"/>
   <poly color="red" fill="1" id="219027196" layer="-1.00" shape="331.58,552.84 320.58,562.39 346.42,590.11 359.35,576.85 344.61,560.75 358.31,549.16 348.87,538.55 331.58,552.84" type="building"/>
   <poly color="red" fill="1" id="219027197" layer="-1.00" shape="523.30,500.56 518.63,490.67 514.92,483.07 510.47,482.53 498.90,493.82 507.07,502.39 508.52,500.25 509.70,500.86 512.41,505.42 523.30,500.56" type="building"/>
   <poly color="red" fill="1" id="219027198" layer="-1.00" shape="369.65,606.23 377.77,596.22 368.29,585.52 363.01,590.93 365.37,593.22 360.94,597.77 369.65,606.23" type="building"/>
   <poly color="red" fill="1" id="219431658" layer="-1.00" shape="660.29,798.96 657.94,786.91 649.29,787.68 650.08,790.90 652.11,799.39 660.29,798.96" type="building"/>
   <poly color="237,199,199" fill="1" id="219431688" layer="-1.00" shape="707.12,723.31 704.98,715.68 698.12,717.60 700.34,725.53 707.12,723.31" type="amenity"/>
   <poly color="red" fill="1" id="219431688#1" layer="-1.00" shape="707.12,723.31 704.98,715.68 698.12,717.60 700.34,725.53 707.12,723.31" type="building"/>
   <poly color="207,245,201" fill="1" id="219431688#2" layer="-2.00" shape="707.12,723.31 704.98,715.68 698.12,717.60 700.34,725.53 707.12,723.31" type="tourism"/>
   <poly color="237,199,199" fill="1" id="219431690" layer="-1.00" shape="698.45,671.73 704.59,669.86 707.81,668.88 706.72,665.35 710.45,664.22 711.56,667.83 717.31,666.08 715.56,660.39 696.71,666.29 698.45,671.73" type="amenity"/>
   <poly color="red" fill="1" id="219431690#1" layer="-1.00" shape="698.45,671.73 704.59,669.86 707.81,668.88 706.72,665.35 710.45,664.22 711.56,667.83 717.31,666.08 715.56,660.39 696.71,666.29 698.45,671.73" type="building"/>
   <poly color="207,245,201" fill="1" id="219431690#2" layer="-2.00" shape="698.45,671.73 704.59,669.86 707.81,668.88 706.72,665.35 710.45,664.22 711.56,667.83 717.31,666.08 715.56,660.39 696.71,666.29 698.45,671.73" type="tourism"/>
   <poly color="red" fill="1" id="222512591" layer="-1.00" shape="470.56,784.97 475.79,790.48 481.23,790.77 486.98,785.94 487.25,780.85 482.15,775.45 476.71,775.15 470.84,779.86 470.56,784.97" type="building"/>
   <poly color="red" fill="1" id="222512592" layer="-1.00" shape="471.86,760.90 477.05,766.24 482.49,766.53 488.28,761.88 488.54,756.78 483.36,751.29 477.87,750.99 472.13,755.82 471.86,760.90" type="building"/>
   <poly color="207,245,201" fill="1" id="222512592#1" layer="-2.00" shape="471.86,760.90 477.05,766.24 482.49,766.53 488.28,761.88 488.54,756.78 483.36,751.29 477.87,750.99 472.13,755.82 471.86,760.90" type="tourism"/>
   <poly color="red" fill="1" id="222512594" layer="-1.00" shape="471.59,765.95 475.18,766.14 477.05,766.24 482.49,766.53 488.01,766.83 488.28,761.88 488.54,756.78 488.83,751.58 483.36,751.29 477.87,750.99 472.41,750.70 472.13,755.82 471.86,760.90 471.59,765.95" type="building"/>