<?xml version="1.0" encoding="utf-8"?><!-- generated on 10/11/17 17:56:45 by SUMO polyconvert Version 0.25.0
<?xml version="1.0" encoding="UTF-8"?>

<configuration xmlns:xsi="http://www.w3.org/2001/XMLSchema-instance" xsi:noNamespaceSchemaLocation="http://sumo.dlr.de/xsd/polyconvertConfiguration.xsd">

    <input>
        <net-file value="M_BMW_industrial_800.net.xml"/>
        <osm-files value="M_BMW_industrial_800.osm"/>
        <type-file value="osmPolyconvert.typ.xml"/>
    </input>

    <output>
        <output-file value="M_BMW_industrial_800.poly.xml"/>
    </output>

    <projection>
        <proj.utm value="true"/>
    </projection>

    <processing>
        <poi-layer-offset value="5"/>
    </processing>

</configuration>
-->
<additional>
   <location convBoundary="0.00,-13.39,823.20,812.29" netOffset="-689830.57,-5339016.12" origBoundary="11.553891,48.175860,11.564687,48.183088" projParameter="+proj=utm +zone=32 +ellps=WGS84 +datum=WGS84 +units=m +no_defs"/>
   <poly color="207,245,201" fill="0" id="10053878" layer="-2.00" shape="57.25,0.91 117.73,0.58 153.91,0.54 170.00,-2.38 177.74,-0.74 237.42,-0.56 329.64,0.39 334.41,-1.01" type="tourism"/>
   <poly color="184,184,179" fill="0" id="10066158" layer="-1.00" shape="48.04,386.65 89.24,387.84 87.95,428.75 83.17,428.60 82.81,438.59 71.43,438.49 70.65,461.90 65.15,461.78 64.93,469.04 64.86,471.37 64.80,473.30 54.15,472.99 54.08,492.24 44.48,492.00 18.96,491.34" type="parking"/>
   <poly color="red" fill="0" id="10066158#1" layer="-1.00" shape="48.04,386.65 89.24,387.84 87.95,428.75 83.17,428.60 82.81,438.59 71.43,438.49 70.65,461.90 65.15,461.78 64.93,469.04 64.86,471.37 64.80,473.30 54.15,472.99 54.08,492.24 44.48,492.00 18.96,491.34" type="building"/>
   <poly color="194,194,130" fill="1" id="101695912" layer="-3.00" shape="363.59,36.72 367.89,35.38 371.23,33.48 374.08,29.96 376.03,25.48 376.09,21.06 373.41,15.58 368.94,11.87 362.04,11.03 356.01,11.81 351.28,14.78 347.75,18.94 346.08,24.44 347.37,29.59 349.94,33.69 353.26,35.71 358.93,36.92 363.59,36.72" type="landuse"/>
   <poly color="207,245,201" fill="1" id="106084312" layer="-2.00" shape="131.76,36.80 17.65,324.07 31.67,327.61 37.16,336.81 36.16,376.14 93.47,378.95 95.36,374.66 95.72,370.90 96.11,366.92 94.19,358.83 90.70,349.96 81.62,334.54 70.66,322.23 54.57,310.43 34.71,301.51 13.20,277.47 14.83,274.59 25.08,277.77 44.89,280.61 64.56,280.10 73.07,277.04 102.66,257.44 111.54,243.62 114.59,232.13 114.51,206.62 121.38,204.49 127.42,203.91 135.35,218.90 145.69,216.84 149.08,216.59 154.39,74.11 162.76,72.48 160.64,46.46 154.15,46.35 148.41,46.18 148.85,40.39 131.76,36.80" type="tourism"/>
   <poly color="red" fill="1" id="120412183" layer="-1.00" shape="452.50,796.73 356.36,795.53 452.50,796.73" type="building"/>
   <poly color="red" fill="1" id="120412186" layer="-1.00" shape="575.98,722.49 595.17,722.87 593.91,786.26 574.72,785.87 575.98,722.49" type="building"/>
   <poly color="red" fill="1" id="120412191" layer="-1.00" shape="656.13,639.85 672.72,640.19 671.46,702.46 654.87,702.13 655.89,651.50 656.13,639.85" type="building"/>
   <poly color="184,184,179" fill="1" id="120412193" layer="-1.00" shape="644.27,807.01 609.71,806.49 610.88,726.33 612.19,726.35 626.54,726.56 645.45,726.85 645.29,737.90 644.27,807.01" type="parking"/>
   <poly color="red" fill="1" id="120412193#1" layer="-1.00" shape="644.27,807.01 609.71,806.49 610.88,726.33 612.19,726.35 626.54,726.56 645.45,726.85 645.29,737.90 644.27,807.01" type="building"/>
   <poly color="red" fill="1" id="120412194" layer="-1.00" shape="433.97,401.26 456.05,401.54 456.52,452.07 433.62,451.87 433.97,401.26" type="building"/>
   <poly color="red" fill="1" id="120412197" layer="-1.00" shape="327.05,781.09 289.97,780.57 290.33,752.03 250.51,751.52 250.88,718.46 328.17,719.88 327.05,781.09" type="building"/>
   <poly color="red" fill="1" id="120477939" layer="-1.00" shape="482.15,695.96 470.19,695.36 471.44,628.08 483.83,628.14 482.15,695.96" type="building"/>
   <poly color="red" fill="1" id="120477946" layer="-1.00" shape="205.55,729.44 205.63,784.09 199.43,784.02 199.47,780.06 152.75,779.52 153.28,763.40 153.90,737.12 154.04,728.67 205.55,729.44" type="building"/>
   <poly color="red" fill="1" id="120477948" layer="-1.00" shape="235.62,780.22 213.28,779.97 213.60,749.15 235.95,749.40 235.62,780.22" type="building"/>
   <poly color="red" fill="1" id="120477956" layer="-1.00" shape="229.95,745.38 221.38,745.06 222.04,727.47 230.60,727.79 229.95,745.38" type="building"/>
   <poly color="red" fill="1" id="120477965" layer="-1.00" shape="729.49,376.05 741.60,375.97 757.33,331.67 757.44,327.73 760.04,327.79 762.37,321.60 762.46,318.34 726.37,317.66 726.14,375.34 729.43,375.43 729.49,376.05" type="building"/>
   <poly color="red" fill="1" id="120477971" layer="-1.00" shape="480.45,163.19 483.45,163.22 492.87,163.31 504.80,163.43 504.74,169.80 504.67,177.55 492.48,177.43 483.33,177.34 480.14,177.31 480.45,163.19" type="building"/>
   <poly color="red" fill="1" id="120477978" layer="-1.00" shape="97.88,655.44 121.38,655.68 119.84,754.76 97.29,754.41 72.49,754.02 73.55,685.31 74.03,654.94 97.88,655.44" type="building"/>
   <poly color="red" fill="1" id="120477981" layer="-1.00" shape="183.06,693.16 166.59,692.33 166.77,657.18 166.86,640.89 176.15,631.44 184.74,632.29 183.06,693.16" type="building"/>
   <poly color="red" fill="1" id="120477983" layer="-1.00" shape="227.96,450.03 227.72,458.58 215.06,458.21 215.14,455.40 215.31,449.67 227.96,450.03" type="building"/>
   <poly color="red" fill="1" id="120497181" layer="-1.00" shape="700.93,714.11 704.08,681.15 716.52,682.76 715.33,690.08 719.11,690.49 717.85,702.19 716.41,715.76 712.47,715.34 700.93,714.11" type="building"/>
   <poly color="red" fill="1" id="120497183" layer="-1.00" shape="740.99,685.65 726.60,684.79 727.73,666.09 742.11,666.96 741.56,676.11 740.99,685.65" type="building"/>
   <poly color="red" fill="1" id="120497185" layer="-1.00" shape="704.08,681.15 709.54,641.91 722.07,642.53 721.50,653.86 720.44,653.77 716.52,682.76 704.08,681.15" type="building"/>
   <poly color="red" fill="1" id="120497187" layer="-1.00" shape="766.58,656.64 767.30,645.00 759.90,644.57 746.59,643.83 732.87,643.05 722.07,642.53 721.50,653.86 766.58,656.64" type="building"/>
   <poly color="red" fill="0" id="122004799" layer="-1.00" shape="49.59,772.74 41.79,772.36" type="building"/>
   <poly color="red" fill="1" id="122006657" layer="-1.00" shape="740.35,571.67 747.45,544.29 733.33,540.21 726.34,568.20 740.35,571.67" type="building"/>
   <poly color="red" fill="1" id="122006658" layer="-1.00" shape="795.81,521.42 801.12,506.04 795.34,504.04 790.02,519.42 795.81,521.42" type="building"/>
   <poly color="194,194,130" fill="1" id="122006658#1" layer="-3.00" shape="795.81,521.42 801.12,506.04 795.34,504.04 790.02,519.42 795.81,521.42" type="landuse"/>
   <poly color="red" fill="1" id="122006659" layer="-1.00" shape="801.82,503.30 804.57,485.33 798.49,484.40 795.73,502.38 801.82,503.30" type="building"/>
   <poly color="194,194,130" fill="1" id="122006659#1" layer="-3.00" shape="801.82,503.30 804.57,485.33 798.49,484.40 795.73,502.38 801.82,503.30" type="landuse"/>
   <poly color="red" fill="1" id="122006660" layer="-1.00" shape="711.51,622.02 754.05,625.00 756.13,604.25 759.49,587.01 762.27,576.69 751.01,575.11 745.43,601.47 738.14,600.87 737.98,605.55 714.02,604.06 711.51,622.02" type="building"/>
   <poly color="red" fill="1" id="122006665" layer="-1.00" shape="735.27,525.09 738.55,513.50 754.68,518.03 751.40,529.62 735.27,525.09" type="building"/>
   <poly color="red" fill="1" id="122006667" layer="-1.00" shape="775.12,574.77 784.27,576.15 785.68,566.86 776.53,565.48 775.12,574.77" type="building"/>
   <poly color="red" fill="1" id="122006671" layer="-1.00" shape="727.83,595.53 732.04,573.22 720.78,571.10 716.58,593.41 727.83,595.53" type="building"/>
   <poly color="red" fill="1" id="122006673" layer="-1.00" shape="773.79,526.48 784.37,529.36 787.92,516.38 777.34,513.50 773.79,526.48" type="building"/>
   <poly color="red" fill="1" id="122006680" layer="-1.00" shape="761.48,546.97 772.99,550.23 774.75,544.07 763.23,540.81 761.48,546.97" type="building"/>
   <poly color="red" fill="1" id="122006686" layer="-1.00" shape="752.39,719.58 759.85,720.37 765.75,721.01 767.20,707.44 753.84,706.01 752.39,719.58" type="building"/>
   <poly color="red" fill="1" id="122006692" layer="-1.00" shape="733.33,540.21 730.95,539.52 735.27,525.09 751.40,529.62 747.45,544.29 733.33,540.21" type="building"/>
   <poly color="red" fill="1" id="122006700" layer="-1.00" shape="751.94,467.03 766.92,471.71 768.56,466.50 766.37,465.82 767.73,461.50 754.93,457.50 751.94,467.03" type="building"/>
   <poly color="red" fill="1" id="122006704" layer="-1.00" shape="746.71,484.56 749.80,474.56 764.89,479.21 762.94,485.53 759.33,484.41 758.18,488.10 746.71,484.56" type="building"/>
   <poly color="red" fill="1" id="122006710" layer="-1.00" shape="774.28,695.27 779.16,642.91 800.68,644.91 799.08,655.14 789.31,654.23 787.59,672.61 785.39,696.30 774.28,695.27" type="building"/>
   <poly color="red" fill="1" id="122006712" layer="-1.00" shape="757.50,449.69 762.78,451.23 762.35,452.70 773.79,456.05 776.02,448.48 772.59,447.48 773.72,443.66 760.42,439.77 757.50,449.69" type="building"/>
   <poly color="red" fill="1" id="122006714" layer="-1.00" shape="757.03,492.24 758.18,488.10 746.71,484.56 743.62,495.07 751.05,497.26 749.91,501.14 756.90,503.19 759.88,493.07 757.03,492.24" type="building"/>
   <poly color="red" fill="1" id="122167675" layer="-1.00" shape="793.42,348.30 787.70,364.07 805.48,352.58 793.42,348.30" type="building"/>
   <poly color="red" fill="1" id="122167684" layer="-1.00" shape="802.17,404.75 803.94,391.41 802.17,404.75" type="building"/>
   <poly color="red" fill="1" id="122167694" layer="-1.00" shape="776.64,387.39 772.80,398.94 789.52,404.47 793.36,392.93 776.64,387.39" type="building"/>
   <poly color="red" fill="1" id="122167750" layer="-1.00" shape="799.89,427.17 798.44,435.11 811.26,437.42 810.78,440.05 799.89,427.17" type="building"/>
   <poly color="red" fill="1" id="122169022" layer="-1.00" shape="768.98,410.90 763.09,429.89 768.65,431.60 768.16,433.16 778.51,436.35 780.54,429.78 777.91,428.97 780.66,420.12 782.82,420.78 785.18,413.18 774.28,409.81 773.51,412.29 768.98,410.90" type="building"/>
   <poly color="207,245,201" fill="1" id="135634037" layer="-2.00" shape="64.06,304.16 62.12,307.14 62.65,309.55 67.73,312.70 77.49,320.88 86.49,332.11 92.71,341.79 98.02,351.59 103.28,353.88 107.09,353.34 111.84,340.24 109.17,325.50 101.41,314.26 72.94,303.75 64.06,304.16" type="tourism"/>
   <poly color="194,194,130" fill="1" id="135634038" layer="-3.00" shape="129.50,247.38 124.70,257.58 116.96,268.27 107.45,277.90 97.69,283.35 89.05,285.04 82.47,285.02 76.12,284.02 74.84,280.39 88.32,271.09 102.39,262.01 110.92,251.74 115.45,241.55 117.21,236.63 119.50,233.73 123.43,233.06 127.42,237.13 129.50,247.38" type="landuse"/>
   <poly color="207,245,201" fill="1" id="135634038#1" layer="-2.00" shape="129.50,247.38 124.70,257.58 116.96,268.27 107.45,277.90 97.69,283.35 89.05,285.04 82.47,285.02 76.12,284.02 74.84,280.39 88.32,271.09 102.39,262.01 110.92,251.74 115.45,241.55 117.21,236.63 119.50,233.73 123.43,233.06 127.42,237.13 129.50,247.38" type="tourism"/>
   <poly color="207,245,201" fill="1" id="135634039" layer="-2.00" shape="131.14,260.48 128.00,260.27 123.61,266.10 114.28,276.73 106.08,283.22 100.18,286.81 98.30,289.13 98.97,292.37 101.89,293.51 108.48,294.50 120.73,292.46 129.95,285.95 133.33,279.70 133.99,270.95 131.14,260.48" type="tourism"/>
   <poly color="red" fill="1" id="144430700" layer="-1.00" shape="806.91,549.90" type="building"/>
   <poly color="red" fill="1" id="146381661" layer="-1.00" shape="498.92,114.21 498.86,119.00 499.61,119.30 501.02,120.08 503.20,121.92 504.72,124.08 505.09,125.02 505.68,126.53 506.00,129.86 505.62,132.11 505.05,133.59 504.83,134.15 504.17,135.06 502.77,136.97 498.94,139.41 495.81,140.09 491.77,139.61 488.58,137.93 488.41,137.85 486.18,135.54 485.71,134.63 484.81,132.94 482.80,132.90 480.33,132.86 480.28,132.97 479.76,134.14 479.53,134.50 478.90,135.50 476.93,137.55 474.68,138.93 472.18,139.74 468.84,139.87 466.61,139.37 464.62,138.48 461.89,136.27 460.64,134.07 460.52,133.86 459.65,132.33 459.13,129.19 459.83,125.17 460.53,123.99 461.77,121.91 464.21,119.80 466.34,118.76 466.30,114.87 464.49,113.83 462.40,111.90 460.98,109.69 460.54,108.41 460.12,107.21 459.94,103.88 460.39,101.67 460.54,101.32 461.25,99.66 463.41,96.91 464.54,96.23 465.90,95.43 467.31,94.60 468.17,94.44 470.45,94.03 474.18,94.61 474.49,94.65 477.81,96.52 479.97,98.92 480.83,100.47 484.86,100.43 485.49,98.94 487.12,96.56 488.94,94.99 489.13,94.83 491.50,93.63 494.80,92.97 497.08,93.11 499.20,93.70 502.02,95.34 502.22,95.45 505.05,98.98 505.22,99.47 506.06,101.98 506.02,106.03 505.18,108.23 504.66,109.54 502.63,112.01 500.74,113.35 498.92,114.21" type="building"/>
   <poly color="red" fill="1" id="150388232" layer="-1.00" shape="756.70,811.48 763.91,812.22 764.21,809.30 757.00,808.55 756.70,811.48" type="building"/>
   <poly color="red" fill="1" id="150388234" layer="-1.00" shape="739.47,792.33 747.21,793.37 747.75,789.42 740.01,788.37 739.47,792.33" type="building"/>
   <poly color="red" fill="1" id="15804929" layer="-1.00" shape="149.08,216.59 164.67,224.93 154.12,245.03 180.94,258.23 181.93,256.25 187.98,246.02 189.13,244.14 192.20,239.16 200.12,242.87 241.56,166.09 264.66,120.82 268.19,113.88 269.64,111.23 274.88,99.29 279.98,89.30 281.48,83.01 281.46,78.77 280.26,73.52 277.65,68.44 273.94,64.25 268.12,60.57 261.14,58.80 255.72,58.98 249.52,59.99 247.40,60.19 238.55,60.72 190.14,67.96 154.39,74.11 149.08,216.59" type="building"/>
   <poly color="207,245,201" fill="1" id="15804929#1" layer="-2.00" shape="149.08,216.59 164.67,224.93 154.12,245.03 180.94,258.23 181.93,256.25 187.98,246.02 189.13,244.14 192.20,239.16 200.12,242.87 241.56,166.09 264.66,120.82 268.19,113.88 269.64,111.23 274.88,99.29 279.98,89.30 281.48,83.01 281.46,78.77 280.26,73.52 277.65,68.44 273.94,64.25 268.12,60.57 261.14,58.80 255.72,58.98 249.52,59.99 247.40,60.19 238.55,60.72 190.14,67.96 154.39,74.11 149.08,216.59" type="tourism"/>
   <poly color="194,194,130" fill="1" id="163408027" layer="-3.00" shape="802.53,50.44 822.82,80.60 823.04,58.29 803.10,56.95 802.53,50.44" type="landuse"/>
   <poly color="red" fill="1" id="163408030" layer="-1.00" shape="425.59,94.17 425.63,134.01 445.11,134.04 460.52,134.06 460.52,133.86 459.65,132.33 459.13,129.19 459.83,125.17 460.53,123.99 460.54,108.41 460.12,107.21 459.94,103.88 460.39,101.67 460.54,101.32 460.82,94.25 425.59,94.17" type="building"/>
   <poly color="194,194,130" fill="1" id="189513010" layer="-3.00" shape="331.95,45.77 367.47,46.63 362.24,53.34 330.15,51.88 331.95,45.77" type="landuse"/>
   <poly color="194,194,130" fill="1" id="189513012" layer="-3.00" shape="312.17,109.22 304.53,119.88 306.91,120.56 315.95,104.92 319.13,101.06 336.69,83.34 355.17,61.67 344.06,59.70 327.59,60.33 318.39,93.95 312.17,109.22" type="landuse"/>
   <poly color="194,194,130" fill="1" id="189518915" layer="-3.00" shape="320.88,30.48 162.09,27.98 161.33,26.96 123.21,26.68 122.76,28.26 261.46,35.53 317.23,38.11 320.88,30.48" type="landuse"/>
   <poly color="194,194,130" fill="1" id="189518922" layer="-3.00" shape="406.69,13.03 538.66,15.17 569.93,15.30 564.48,13.72 413.05,7.87 406.69,13.03" type="landuse"/>
   <poly color="194,194,130" fill="1" id="189518926" layer="-3.00" shape="386.13,13.15 389.70,7.89 379.34,7.61 382.59,9.83 386.13,13.15" type="landuse"/>
   <poly color="194,194,130" fill="1" id="189518927" layer="-3.00" shape="395.91,30.99 510.88,31.70 570.12,32.87 570.34,31.82 622.84,31.58 616.60,33.17 517.48,37.29 513.46,37.29 510.29,36.79 506.12,36.10 500.89,36.17 393.93,37.36 395.91,30.99" type="landuse"/>
   <poly color="194,194,130" fill="1" id="189518928" layer="-3.00" shape="336.76,39.36 346.55,39.56 342.09,35.64 339.79,32.10 336.76,39.36" type="landuse"/>
   <poly color="194,194,130" fill="0" id="189518934" layer="-3.00" shape="358.20,0.68 393.92,0.87" type="landuse"/>
   <poly color="194,194,130" fill="1" id="189518939" layer="-3.00" shape="311.64,44.30 291.91,43.44 291.46,45.02 294.19,47.37 309.87,49.42 311.64,44.30" type="landuse"/>
   <poly color="red" fill="1" id="19108729" layer="-1.00" shape="97.59,460.49 108.89,466.15 107.75,468.44 113.02,471.08 120.01,474.58 123.14,476.14 124.13,476.64 130.75,463.53 140.50,444.16 136.00,441.91 131.08,439.44 135.57,430.52 128.32,426.90 132.46,418.67 126.23,415.55 130.31,407.45 124.53,404.57 128.59,396.51 122.60,393.51 159.40,320.45 163.61,322.56 167.23,315.38 191.73,327.65 159.83,390.98 164.48,393.31 213.04,296.91 201.74,291.32 196.46,288.60 195.03,291.44 183.47,285.64 175.59,301.30 169.10,298.05 166.01,304.18 155.55,298.93 139.51,330.79 145.12,333.60 112.67,398.01 118.40,400.88 114.01,409.59 120.62,412.90 115.52,423.04 121.61,426.09 113.92,441.35 108.58,438.67 97.59,460.49" type="building"/>
   <poly color="194,194,130" fill="0" id="192190497" layer="-3.00" shape="823.13,42.42 808.40,41.32 788.46,40.66 775.49,40.63 701.27,39.74 657.95,39.89 641.37,40.32 635.97,40.54 633.04,37.74 626.03,45.39 694.26,45.36 754.77,45.31 795.03,46.13 821.14,48.31" type="landuse"/>
   <poly color="194,194,130" fill="1" id="192199952" layer="-3.00" shape="444.71,145.61 399.91,145.42 399.90,136.03 444.97,136.17 444.71,145.61" type="landuse"/>
   <poly color="194,194,130" fill="1" id="192199954" layer="-3.00" shape="391.69,145.11 331.08,144.05 327.32,142.72 324.41,140.43 323.28,138.41 360.00,137.52 368.05,135.60 391.60,135.79 391.69,145.11" type="landuse"/>
   <poly color="194,194,130" fill="1" id="192199958" layer="-3.00" shape="605.71,48.32 526.44,49.46 522.04,49.71 517.43,50.15 512.00,51.36 505.53,52.52 480.58,52.95 480.75,60.87 561.52,62.05 561.46,64.56 605.38,64.42 605.71,48.32" type="landuse"/>
   <poly color="194,194,130" fill="1" id="192199960" layer="-3.00" shape="419.38,-2.07 423.28,-0.47 434.85,-0.08 436.36,2.16 417.54,1.49 417.31,0.50 419.38,-2.07" type="landuse"/>
   <poly color="194,194,130" fill="1" id="192199962" layer="-3.00" shape="385.28,78.12 376.24,70.53 365.37,70.75 324.82,125.63 327.45,126.29 374.17,77.97 385.28,78.12" type="landuse"/>
   <poly color="194,194,130" fill="1" id="192199964" layer="-3.00" shape="373.13,86.60 353.39,133.04 336.79,128.12 373.13,86.60" type="landuse"/>
   <poly color="194,194,130" fill="1" id="192199966" layer="-3.00" shape="610.84,44.31 604.40,39.91 542.23,42.83 497.88,43.93 495.17,47.42 465.41,47.82 465.44,49.32 495.92,48.92 503.71,48.71 508.92,47.88 513.35,46.84 517.54,46.05 522.54,45.63 537.11,45.71 610.84,44.31" type="landuse"/>
   <poly color="194,194,130" fill="1" id="192199971" layer="-3.00" shape="470.86,54.47 384.96,55.94 384.78,61.94 453.07,61.74 453.15,59.35 455.18,58.43 470.50,59.02 470.86,54.47" type="landuse"/>
   <poly color="209,209,204" fill="0" id="19269773" layer="-3.00" shape="802.64,219.68 801.07,224.47 791.51,253.57 737.19,418.94 698.88,552.65 680.30,625.58 677.68,731.07 10.72,783.17 15.91,770.65 16.49,757.11 57.07,674.60 110.27,565.96 242.56,293.85 300.38,167.19 324.82,125.63 365.37,70.75 377.20,54.73 384.96,55.94 480.58,52.95 505.53,52.52 517.93,49.74 531.70,49.56 650.41,47.80 802.53,50.44 803.10,56.95 823.04,58.29 822.82,80.60" type="industrial"/>
   <poly color="184,184,179" fill="0" id="19748617" layer="-1.00" shape="7.55,604.68 8.47,570.08 5.37,570.02 5.85,551.60" type="parking"/>
   <poly color="red" fill="0" id="19748617#1" layer="-1.00" shape="7.55,604.68 8.47,570.08 5.37,570.02 5.85,551.60" type="building"/>
   <poly color="red" fill="0" id="19748714" layer="-1.00" shape="6.24,550.95 5.91,563.64 18.49,563.96 18.81,551.44 33.82,551.83 34.32,532.45" type="building"/>
   <poly color="red" fill="1" id="210979791" layer="-1.00" shape="536.49,254.70 540.07,254.77 539.98,259.18 589.00,260.16 589.06,257.08 602.72,257.36 602.34,275.96 602.11,288.02 605.57,288.09 604.50,341.37 506.66,339.84 508.18,254.15 536.49,254.70" type="building"/>
   <poly color="red" fill="1" id="210979795" layer="-1.00" shape="536.49,254.70 525.25,254.46 525.33,250.90 493.90,250.15 494.10,241.71 494.32,232.69 500.02,232.83 500.73,203.05 564.63,204.94 611.92,206.44 610.99,236.06 620.30,236.35 619.83,251.29 601.56,251.54 536.58,251.01 536.49,254.70" type="building"/>
   <poly color="red" fill="1" id="210979796" layer="-1.00" shape="227.68,426.51 205.09,415.27 224.08,374.03 233.88,338.44 246.03,338.86 245.49,365.77 249.70,365.91 249.41,381.16 245.06,381.16 244.77,400.66 242.57,400.58 242.26,409.83 235.90,409.62 227.68,426.51" type="building"/>
   <poly color="red" fill="1" id="210979799" layer="-1.00" shape="506.79,457.84 506.92,445.99 523.24,446.27 524.05,398.03 507.73,397.75 491.59,397.44 485.09,397.38 485.15,391.32 492.36,391.39 492.42,384.02 493.42,339.44 506.66,339.84 505.22,377.98 519.75,378.44 519.56,384.82 529.72,385.14 529.89,380.08 561.43,381.08 559.87,458.89 506.79,457.84" type="building"/>
   <poly color="red" fill="1" id="210979801" layer="-1.00" shape="304.94,174.10 314.62,174.44 327.78,174.66 342.13,175.00 401.04,176.29 417.82,176.39 456.05,176.97 455.54,203.45 455.28,231.93 303.24,229.92 303.35,227.41 302.01,226.69 303.54,223.22 302.08,222.40 303.56,218.87 302.15,218.11 303.55,214.47 302.11,213.70 303.75,210.00 302.21,209.18 303.90,205.61 302.38,204.89 303.85,201.51 303.92,199.81 302.84,199.26 303.01,189.84 304.04,189.38 304.03,188.20 302.62,187.37 304.18,183.75 302.77,183.04 304.29,179.34 302.86,178.57 304.94,174.10" type="building"/>
   <poly color="red" fill="1" id="210979802" layer="-1.00" shape="492.20,347.11 492.42,384.02 461.85,383.73 462.29,380.66 463.38,345.72 492.20,347.11" type="building"/>
   <poly color="red" fill="1" id="210979803" layer="-1.00" shape="329.92,431.86 423.42,433.04 423.76,455.65 340.06,453.75 329.76,453.45 329.95,438.80 329.92,431.86" type="building"/>
   <poly color="red" fill="1" id="210979804" layer="-1.00" shape="446.99,249.11 481.38,249.13 479.65,307.30 465.67,307.22 446.09,307.10 446.63,272.56 446.99,249.11" type="building"/>
   <poly color="red" fill="1" id="210979805" layer="-1.00" shape="486.47,482.42 484.88,567.74 466.98,567.40 468.57,482.08 486.47,482.42" type="building"/>
   <poly color="red" fill="1" id="210979806" layer="-1.00" shape="611.92,206.44 564.63,204.94 565.16,189.33 565.64,172.16 720.14,197.46 774.13,205.25 773.42,209.54 718.80,207.82 717.79,239.44 666.82,237.83 620.30,236.35 610.99,236.06 611.92,206.44" type="building"/>
   <poly color="red" fill="1" id="210979807" layer="-1.00" shape="491.59,397.44 507.73,397.75 506.92,445.99 491.65,445.18 491.59,397.44" type="building"/>
   <poly color="red" fill="1" id="210979808" layer="-1.00" shape="330.77,377.81 330.18,395.88 252.08,395.14 252.32,381.25 252.95,376.22 330.77,377.81" type="building"/>
   <poly color="red" fill="1" id="210979809" layer="-1.00" shape="455.28,231.93 478.89,232.39 482.76,232.47 490.86,232.62 494.32,232.69 494.10,241.71 490.58,241.64 482.11,241.48 434.37,240.57 434.45,231.67 455.28,231.93" type="building"/>
   <poly color="red" fill="1" id="210979810" layer="-1.00" shape="468.63,475.81 468.57,482.08 466.98,567.40 466.83,586.01 466.77,594.38 466.66,606.33 362.23,604.61 356.27,604.49 342.89,604.15 345.27,473.91 468.63,475.81" type="building"/>
   <poly color="red" fill="1" id="210979811" layer="-1.00" shape="714.49,344.11 713.17,385.87 712.77,385.86 568.67,381.31 561.43,381.08 529.89,380.08 529.72,385.14 519.56,384.82 519.75,378.44 505.22,377.98 506.66,339.84 604.50,341.37 618.24,341.45 664.63,342.52 714.49,344.11" type="building"/>
   <poly color="red" fill="1" id="210979812" layer="-1.00" shape="252.95,376.22 253.69,339.38 265.31,340.04 296.45,341.08 296.63,335.26 351.82,336.61 351.87,341.69 351.65,378.20 330.77,377.81 252.95,376.22" type="building"/>
   <poly color="235,235,227" fill="1" id="221042289" layer="-3.00" shape="693.12,731.74" type="residential"/>
   <poly color="235,235,227" fill="0" id="238627891" layer="-3.00" shape="802.64,219.68 801.07,224.47 791.51,253.57 737.19,418.94 698.88,552.65 680.30,625.58 677.68,731.07 693.12,731.74" type="residential"/>
   <poly color="235,235,227" fill="1" id="238627893" layer="-3.00" shape="780.58,628.91 794.22,554.56 780.58,628.91" type="residential"/>
   <poly color="red" fill="1" id="239774816" layer="-1.00" shape="21.98,343.02 17.55,342.90 17.45,346.09 21.89,346.21 21.98,343.02" type="building"/>
   <poly color="red" fill="1" id="239774821" layer="-1.00" shape="26.59,336.78 22.16,336.65 22.07,339.84 26.50,339.97 26.59,336.78" type="building"/>
   <poly color="red" fill="1" id="239774832" layer="-1.00" shape="35.33,370.10 35.43,366.92 30.24,366.76 30.14,369.94 35.33,370.10" type="building"/>
   <poly color="red" fill="1" id="239774844" layer="-1.00" shape="11.12,342.65 15.41,342.81 15.53,339.62 11.24,339.46 11.12,342.65" type="building"/>
   <poly color="red" fill="1" id="239774849" layer="-1.00" shape="17.67,356.71 13.22,356.55 13.11,359.82 17.55,359.98 17.67,356.71" type="building"/>
   <poly color="red" fill="0" id="239774850" layer="-1.00" shape="10.88,349.03 11.00,345.84" type="building"/>
   <poly color="red" fill="1" id="239774856" layer="-1.00" shape="22.07,339.84 17.63,339.71 17.55,342.90 21.98,343.02 22.07,339.84" type="building"/>
   <poly color="red" fill="1" id="239774860" layer="-1.00" shape="17.33,366.50 12.88,366.34 12.77,369.61 17.21,369.76 17.33,366.50" type="building"/>
   <poly color="red" fill="1" id="239774862" layer="-1.00" shape="26.68,333.60 22.25,333.46 22.16,336.65 26.59,336.78 26.68,333.60" type="building"/>
   <poly color="red" fill="1" id="239774881" layer="-1.00" shape="11.24,339.46 15.53,339.62 15.65,336.43 11.36,336.27 11.24,339.46" type="building"/>
   <poly color="red" fill="0" id="239774885" layer="-1.00" shape="11.00,345.84 11.12,342.65" type="building"/>
   <poly color="red" fill="1" id="239774888" layer="-1.00" shape="17.44,363.23 12.99,363.09 12.88,366.34 17.33,366.50 17.44,363.23" type="building"/>
   <poly color="red" fill="1" id="239774894" layer="-1.00" shape="23.96,363.56 19.56,363.41 19.44,366.60 23.85,366.75 23.96,363.56" type="building"/>
   <poly color="red" fill="1" id="239774895" layer="-1.00" shape="26.32,346.34 21.89,346.21 21.79,349.39 26.23,349.52 26.32,346.34" type="building"/>
   <poly color="red" fill="1" id="239774904" layer="-1.00" shape="28.25,366.90 23.85,366.75 23.74,369.94 28.14,370.09 28.25,366.90" type="building"/>
   <poly color="red" fill="1" id="239774907" layer="-1.00" shape="35.83,354.19 35.92,351.00 30.73,350.84 30.63,354.03 35.83,354.19" type="building"/>
   <poly color="red" fill="1" id="239774923" layer="-1.00" shape="10.76,352.22 15.06,352.38 15.18,349.18 10.88,349.03 10.76,352.22" type="building"/>
   <poly color="red" fill="0" id="239774953" layer="-1.00" shape="11.47,333.08 11.59,329.89" type="building"/>
   <poly color="red" fill="1" id="239774990" layer="-1.00" shape="35.13,376.47 35.23,373.29 30.04,373.13 29.93,376.31 35.13,376.47" type="building"/>
   <poly color="red" fill="1" id="239775015" layer="-1.00" shape="24.28,354.01 19.88,353.87 19.78,357.05 24.18,357.19 24.28,354.01" type="building"/>
   <poly color="red" fill="1" id="239775038" layer="-1.00" shape="21.89,346.21 17.45,346.09 17.36,349.27 21.79,349.39 21.89,346.21" type="building"/>
   <poly color="red" fill="1" id="239775041" layer="-1.00" shape="36.12,344.63 36.23,341.45 31.03,341.29 30.93,344.47 36.12,344.63" type="building"/>
   <poly color="red" fill="1" id="239775059" layer="-1.00" shape="23.74,369.94 19.34,369.78 19.23,372.97 23.63,373.12 23.74,369.94" type="building"/>
   <poly color="red" fill="1" id="239775096" layer="-1.00" shape="11.36,336.27 15.65,336.43 15.77,333.24 11.47,333.08 11.36,336.27" type="building"/>
   <poly color="red" fill="1" id="239775112" layer="-1.00" shape="35.63,360.56 35.73,357.37 30.53,357.20 30.43,360.39 35.63,360.56" type="building"/>
   <poly color="red" fill="1" id="239775115" layer="-1.00" shape="22.16,336.65 17.72,336.53 17.63,339.71 22.07,339.84 22.16,336.65" type="building"/>
   <poly color="red" fill="1" id="239775130" layer="-1.00" shape="35.43,366.92 35.53,363.73 30.33,363.57 30.24,366.76 35.43,366.92" type="building"/>
   <poly color="red" fill="1" id="239775142" layer="-1.00" shape="13.22,356.55 13.11,359.82 13.22,356.55" type="building"/>
   <poly color="red" fill="1" id="239775143" layer="-1.00" shape="10.88,349.03 15.18,349.18 15.29,345.99 11.00,345.84 10.88,349.03" type="building"/>
   <poly color="red" fill="1" id="239775146" layer="-1.00" shape="12.88,366.34 12.77,369.61 12.88,366.34" type="building"/>
   <poly color="red" fill="1" id="239775150" layer="-1.00" shape="28.58,357.35 24.18,357.19 24.07,360.38 28.47,360.53 28.58,357.35" type="building"/>
   <poly color="red" fill="1" id="239775153" layer="-1.00" shape="22.25,333.46 17.81,333.34 17.72,336.53 22.16,336.65 22.25,333.46" type="building"/>
   <poly color="red" fill="1" id="239775181" layer="-1.00" shape="11.00,345.84 15.29,345.99 15.41,342.81 11.12,342.65 11.00,345.84" type="building"/>
   <poly color="red" fill="1" id="239775184" layer="-1.00" shape="12.99,363.09 12.88,366.34 12.99,363.09" type="building"/>
   <poly color="red" fill="1" id="239775197" layer="-1.00" shape="23.85,366.75 19.44,366.60 19.34,369.78 23.74,369.94 23.85,366.75" type="building"/>
   <poly color="red" fill="1" id="239775202" layer="-1.00" shape="35.92,351.00 36.02,347.82 30.83,347.66 30.73,350.84 35.92,351.00" type="building"/>
   <poly color="red" fill="1" id="239775213" layer="-1.00" shape="17.55,359.98 13.11,359.82 12.99,363.09 17.44,363.23 17.55,359.98" type="building"/>
   <poly color="red" fill="1" id="239775235" layer="-1.00" shape="26.41,343.15 21.98,343.02 21.89,346.21 26.32,346.34 26.41,343.15" type="building"/>