<?xml version="1.0" encoding="utf-8"?><!-- generated on 10/11/17 17:56:40 by SUMO netconvert Version 0.25.0
<?xml version="1.0" encoding="UTF-8"?>

<configuration xmlns:xsi="http://www.w3.org/2001/XMLSchema-instance" xsi:noNamespaceSchemaLocation="http://sumo.dlr.de/xsd/netconvertConfiguration.xsd">

    <input>
        <type-files value="osmNetconvert.typ.xml"/>
        <osm-files value="M_BMW_industrial_800.osm"/>
    </input>

    <output>
        <output-file value="M_BMW_industrial_800.net.xml"/>
    </output>

    <projection>
        <proj.utm value="true"/>
    </projection>

    <edge_removal>
        <remove-edges.by-type value="highway.track,highway.unsurfaced,highway.raceway,highway.bridleway,highway.path,highway.footway,highway.pedestrian,highway.cycleway,highway.step,highway.steps,highway.stairs,highway.bus_guideway,highway.ford,railway.rail,railway.tram,railway.light_rail,railway.subway,railway.preserved,railway.narrow_gauge,railway.monorail,railway.funicular"/>
    </edge_removal>

</configuration>
-->
<net version="0.25">
   <location convBoundary="0.00,0.00,817.14,809.34" netOffset="-689830.57,-5339016.12" origBoundary="11.553891,48.175863,11.564659,48.183084" projParameter="+proj=utm +zone=32 +ellps=WGS84 +datum=WGS84 +units=m +no_defs"/>
   <type allow="pedestrian" id="highway.bridleway" numLanes="1" oneway="1" priority="1" speed="2.78" width="2.00"/>
   <type allow="bus" id="highway.bus_guideway" numLanes="1" oneway="1" priority="1" speed="8.33"/>
   <type allow="bicycle" id="highway.cycleway" numLanes="1" oneway="0" priority="1" speed="5.56" width="1.00"/>
   <type allow="pedestrian" id="highway.footway" numLanes="1" oneway="1" priority="1" speed="8.33" width="2.00"/>
   <type allow="army" id="highway.ford" numLanes="1" oneway="0" priority="1" speed="2.78"/>
   <type disallow="tram rail_urban rail rail_electric ship" id="highway.living_street" numLanes="1" oneway="0" priority="3" speed="2.78"/>
   <type allow="private emergency authority army vip passenger hov taxi bus coach delivery truck trailer motorcycle evehicle custom1 custom2" id="highway.motorway" numLanes="2" oneway="1" priority="13" speed="44.44"/>
   <type allow="private emergency authority army vip passenger hov taxi bus coach delivery truck trailer motorcycle evehicle custom1 custom2" id="highway.motorway_link" numLanes="1" oneway="1" priority="12" speed="22.22"/>
   <type allow="bicycle pedestrian" id="highway.path" numLanes="1" oneway="1" priority="1" speed="2.78" width="2.00"/>
   <type allow="pedestrian" id="highway.pedestrian" numLanes="1" oneway="1" priority="1" speed="8.33" width="2.00"/>
   <type disallow="tram rail_urban rail rail_electric ship" id="highway.primary" numLanes="2" oneway="0" priority="9" speed="27.78"/>
   <type disallow="tram rail_urban rail rail_electric ship" id="highway.primary_link" numLanes="1" oneway="0" priority="8" speed="22.22"/>
   <type allow="vip" id="highway.raceway" numLanes="2" oneway="0" priority="14" speed="83.33"/>
   <type disallow="tram rail_urban rail rail_electric ship" id="highway.residential" numLanes="1" oneway="0" priority="4" speed="13.89"/>
   <type disallow="tram rail_urban rail rail_electric ship" id="highway.secondary" numLanes="2" oneway="0" priority="7" speed="27.78"/>
   <type disallow="tram rail_urban rail rail_electric ship" id="highway.secondary_link" numLanes="1" oneway="0" priority="6" speed="22.22"/>
   <type allow="delivery bicycle pedestrian" id="highway.service" numLanes="1" oneway="0" priority="2" speed="5.56"/>
   <type disallow="tram rail_urban rail rail_electric ship" id="highway.services" numLanes="1" oneway="0" priority="1" speed="8.33"/>
   <type allow="pedestrian" id="highway.stairs" numLanes="1" oneway="1" priority="1" speed="1.39" width="2.00"/>
   <type allow="pedestrian" id="highway.step" numLanes="1" oneway="1" priority="1" speed="1.39" width="2.00"/>
   <type allow="pedestrian" id="highway.steps" numLanes="1" oneway="1" priority="1" speed="1.39" width="2.00"/>
   <type disallow="tram rail_urban rail rail_electric ship" id="highway.tertiary" numLanes="1" oneway="0" priority="6" speed="22.22"/>
   <type disallow="tram rail_urban rail rail_electric ship" id="highway.tertiary_link" numLanes="1" oneway="0" priority="5" speed="22.22"/>
   <type disallow="tram rail_urban rail rail_electric ship" id="highway.track" numLanes="1" oneway="0" priority="1" speed="5.56"/>
   <type disallow="tram rail_urban rail rail_electric bicycle pedestrian ship" id="highway.trunk" numLanes="2" oneway="0" priority="11" speed="27.78"/>
   <type disallow="tram rail_urban rail rail_electric bicycle pedestrian ship" id="highway.trunk_link" numLanes="1" oneway="0" priority="10" speed="22.22"/>
   <type disallow="tram rail_urban rail rail_electric ship" id="highway.unclassified" numLanes="1" oneway="0" priority="5" speed="13.89"/>
   <type disallow="tram rail_urban rail rail_electric ship" id="highway.unsurfaced" numLanes="1" oneway="0" priority="1" speed="8.33"/>
   <type allow="rail_urban" id="railway.light_rail" numLanes="1" oneway="1" priority="15" speed="27.78"/>
   <type allow="rail" id="railway.preserved" numLanes="1" oneway="1" priority="15" speed="27.78"/>
   <type allow="rail rail_electric" id="railway.rail" numLanes="1" oneway="1" priority="15" speed="83.33"/>
   <type allow="rail_urban" id="railway.subway" numLanes="1" oneway="1" priority="15" speed="27.78"/>
   <type allow="tram" id="railway.tram" numLanes="1" oneway="1" priority="15" speed="13.89"/>
   <edge function="internal" id=":1038247031_0">
      <lane disallow="tram rail_urban rail rail_electric bicycle pedestrian ship" id=":1038247031_0_0" index="0" length="41.05" shape="560.92,9.26 568.69,9.90 577.52,11.00 588.23,12.03 601.62,12.49" speed="15.28"/>
      <lane disallow="tram rail_urban rail rail_electric bicycle pedestrian ship" id=":1038247031_0_1" index="1" length="41.05" shape="560.53,12.55 568.35,13.19 577.32,14.29 588.17,15.33 601.62,15.79" speed="15.28"/>
   </edge>
   <edge function="internal" id=":1038247031_2">
      <lane disallow="tram rail_urban rail rail_electric bicycle pedestrian ship" id=":1038247031_2_0" index="0" length="41.44" shape="560.34,15.79 568.19,16.31 577.23,17.44 588.14,18.57 601.62,19.09" speed="16.67"/>
      <lane disallow="tram rail_urban rail rail_electric bicycle pedestrian ship" id=":1038247031_2_1" index="1" length="41.44" shape="560.34,19.09 568.19,19.61 577.23,20.74 588.14,21.87 601.62,22.39" speed="16.67"/>
   </edge>
   <edge function="internal" id=":1038249672_0">
      <lane disallow="tram rail_urban rail rail_electric ship" id=":1038249672_0_0" index="0" length="3.22" shape="339.73,91.92 339.50,94.92" speed="13.89"/>
      <lane disallow="tram rail_urban rail rail_electric ship" id=":1038249672_0_1" index="1" length="3.22" shape="339.73,91.92 336.82,92.99" speed="13.89"/>
      <lane disallow="tram rail_urban rail rail_electric ship" id=":1038249672_0_2" index="2" length="3.22" shape="337.19,89.82 334.15,91.06" speed="13.89"/>
      <lane disallow="tram rail_urban rail rail_electric ship" id=":1038249672_0_3" index="3" length="3.22" shape="334.64,87.72 331.47,89.13" speed="13.89"/>
   </edge>
   <edge function="internal" id=":1038259592_0">
      <lane disallow="tram rail_urban rail rail_electric ship" id=":1038259592_0_0" index="0" length="14.10" shape="365.48,2.59 369.62,2.86 372.45,3.29 375.28,3.66 379.43,3.73" speed="13.89"/>
      <lane disallow="tram rail_urban rail rail_electric ship" id=":1038259592_0_1" index="1" length="14.10" shape="365.41,5.89 369.61,6.16 372.47,6.59 375.33,6.96 379.53,7.03" speed="13.89"/>
   </edge>
   <edge function="internal" id=":1038259592_2">
      <lane disallow="tram rail_urban rail rail_electric ship" id=":1038259592_2_0" index="0" length="13.43" shape="365.35,9.19 370.85,9.37 374.92,9.69 377.56,10.14 378.77,10.73" speed="13.89"/>
      <lane disallow="tram rail_urban rail rail_electric ship" id=":1038259592_2_1" index="1" length="13.43" shape="365.35,9.19 369.19,9.56 372.44,10.49 375.11,12.01 377.19,14.09" speed="13.89"/>
   </edge>
   <edge function="internal" id=":1038259596_0">
      <lane disallow="tram rail_urban rail rail_electric ship" id=":1038259596_0_0" index="0" length="5.02" shape="393.51,21.19 391.03,25.69" speed="13.89"/>
      <lane disallow="tram rail_urban rail rail_electric ship" id=":1038259596_0_1" index="1" length="5.02" shape="390.72,19.42 388.31,23.82" speed="13.89"/>
      <lane disallow="tram rail_urban rail rail_electric ship" id=":1038259596_0_2" index="2" length="5.02" shape="387.94,17.65 385.60,21.94" speed="13.89"/>
   </edge>
   <edge function="internal" id=":1038259596_3">
      <lane disallow="tram rail_urban rail rail_electric ship" id=":1038259596_3_0" index="0" length="8.81" shape="383.13,16.77 385.22,20.11 386.79,22.39 387.82,23.63 388.31,23.82" speed="13.89"/>
      <lane disallow="tram rail_urban rail rail_electric ship" id=":1038259596_3_1" index="1" length="8.81" shape="379.22,16.78 381.56,19.68 383.41,21.51 384.75,22.26 385.60,21.94" speed="13.89"/>
   </edge>
   <edge function="internal" id=":1038259613_0">
      <lane disallow="tram rail_urban rail rail_electric ship" id=":1038259613_0_0" index="0" length="13.65" shape="359.07,44.91 355.02,44.86 352.25,44.82 349.48,44.79 345.43,44.74" speed="13.89"/>
      <lane disallow="tram rail_urban rail rail_electric ship" id=":1038259613_0_1" index="1" length="13.65" shape="359.12,41.62 355.07,41.56 352.30,41.52 349.52,41.49 345.47,41.44" speed="13.89"/>
   </edge>
   <edge function="internal" id=":1038259613_2">
      <lane disallow="tram rail_urban rail rail_electric ship" id=":1038259613_2_0" index="0" length="12.85" shape="359.12,41.62 355.04,41.32 351.62,40.56 348.89,39.34 346.83,37.65" speed="13.89"/>
      <lane disallow="tram rail_urban rail rail_electric ship" id=":1038259613_2_1" index="1" length="12.85" shape="359.12,41.62 356.85,41.18 354.39,39.94 351.74,37.89 348.90,35.03" speed="13.89"/>
   </edge>
   <edge function="internal" id=":1088827979_0">
      <lane disallow="tram rail_urban rail rail_electric ship" id=":1088827979_0_0" index="0" length="0.14" shape="297.72,118.63 297.82,118.43" speed="13.89"/>
      <lane disallow="tram rail_urban rail rail_electric ship" id=":1088827979_0_1" index="1" length="0.14" shape="300.74,119.98 300.74,119.98" speed="13.89"/>
      <lane disallow="tram rail_urban rail rail_electric ship" id=":1088827979_0_2" index="2" length="0.14" shape="303.69,121.44 303.71,121.40" speed="13.89"/>
   </edge>
   <edge function="internal" id=":1088828037_0">
      <lane disallow="tram rail_urban rail rail_electric ship" id=":1088828037_0_0" index="0" length="0.10" shape="113.64,541.97 113.63,541.99" speed="13.89"/>
      <lane disallow="tram rail_urban rail rail_electric ship" id=":1088828037_0_1" index="1" length="0.10" shape="110.66,540.56 110.67,540.53" speed="13.89"/>
   </edge>
   <edge function="internal" id=":1088828050_0">
      <lane disallow="tram rail_urban rail rail_electric ship" id=":1088828050_0_0" index="0" length="0.10" shape="99.93,536.60 99.93,536.60" speed="13.89"/>
      <lane disallow="tram rail_urban rail rail_electric ship" id=":1088828050_0_1" index="1" length="0.10" shape="102.89,538.05 102.89,538.05" speed="13.89"/>
   </edge>
   <edge function="internal" id=":1092628738_0">
      <lane disallow="tram rail_urban rail rail_electric ship" id=":1092628738_0_0" index="0" length="9.66" shape="691.53,710.36 690.99,720.01" speed="13.89"/>
   </edge>
   <edge function="internal" id=":1092628738_1">
      <lane allow="delivery bicycle pedestrian" id=":1092628738_1_0" index="0" length="5.27" shape="691.53,710.36 691.01,713.08 689.70,715.02 689.57,715.10" speed="9.72"/>
   </edge>
   <edge function="internal" id=":1092628738_2">
      <lane disallow="tram rail_urban rail rail_electric ship" id=":1092628738_2_0" index="0" length="2.41" shape="691.53,710.36 690.66,711.57 689.82,711.95" speed="13.89"/>
   </edge>
   <edge function="internal" id=":1092628738_9">
      <lane id=":1092628738_9_0" index="0" length="5.15" shape="689.57,715.10 687.61,716.18 684.72,716.56" speed="9.72"/>
   </edge>
   <edge function="internal" id=":1092628738_10">
      <lane id=":1092628738_10_0" index="0" length="2.41" shape="689.82,711.95 689.01,711.50 688.23,710.23" speed="13.89"/>
   </edge>
   <edge function="internal" id=":1092628738_3">
      <lane disallow="tram rail_urban rail rail_electric ship" id=":1092628738_3_0" index="0" length="5.23" shape="684.73,713.26 686.22,713.08 687.30,712.51 687.97,711.56 688.23,710.23" speed="9.72"/>
   </edge>
   <edge function="internal" id=":1092628738_4">
      <lane disallow="tram rail_urban rail rail_electric ship" id=":1092628738_4_0" index="0" length="10.66" shape="684.73,713.26 687.65,713.69 689.67,714.96 690.78,717.07 690.99,720.01" speed="9.72"/>
   </edge>
   <edge function="internal" id=":1092628738_5">
      <lane allow="delivery bicycle pedestrian" id=":1092628738_5_0" index="0" length="4.82" shape="684.73,713.26 685.97,714.09 686.38,714.92 685.96,715.74 684.72,716.56" speed="5.56"/>
   </edge>
   <edge function="internal" id=":1092628738_6">
      <lane allow="delivery bicycle pedestrian" id=":1092628738_6_0" index="0" length="5.08" shape="687.70,719.77 687.60,718.37 687.07,717.37 686.11,716.77 684.72,716.56" speed="9.72"/>
   </edge>
   <edge function="internal" id=":1092628738_7">
      <lane disallow="tram rail_urban rail rail_electric ship" id=":1092628738_7_0" index="0" length="9.56" shape="687.70,719.77 688.23,710.23" speed="13.89"/>
   </edge>
   <edge function="internal" id=":1092628738_8">
      <lane disallow="tram rail_urban rail rail_electric ship" id=":1092628738_8_0" index="0" length="2.41" shape="687.70,719.77 688.61,718.60 689.46,718.25" speed="13.89"/>
   </edge>
   <edge function="internal" id=":1092628738_11">
      <lane id=":1092628738_11_0" index="0" length="2.41" shape="689.46,718.25 690.26,718.71 690.99,720.01" speed="13.89"/>
   </edge>
   <edge function="internal" id=":1128521652_0">
      <lane disallow="tram rail_urban rail rail_electric bicycle pedestrian ship" id=":1128521652_0_0" index="0" length="3.42" shape="174.54,3.07 177.57,1.42" speed="15.28"/>
      <lane disallow="tram rail_urban rail rail_electric bicycle pedestrian ship" id=":1128521652_0_1" index="1" length="3.42" shape="174.54,3.07 177.55,4.72" speed="15.28"/>
      <lane disallow="tram rail_urban rail rail_electric bicycle pedestrian ship" id=":1128521652_0_2" index="2" length="3.42" shape="174.56,6.37 177.53,8.02" speed="15.28"/>
   </edge>
   <edge function="internal" id=":11307843_0">
      <lane disallow="tram rail_urban rail rail_electric bicycle pedestrian ship" id=":11307843_0_0" index="0" length="4.01" shape="651.48,37.03 647.71,37.15" speed="16.67"/>
      <lane disallow="tram rail_urban rail rail_electric bicycle pedestrian ship" id=":11307843_0_1" index="1" length="4.01" shape="651.50,33.73 647.25,33.87" speed="16.67"/>
   </edge>
   <edge function="internal" id=":11307843_2">
      <lane disallow="tram rail_urban rail rail_electric bicycle pedestrian ship" id=":11307843_2_0" index="0" length="3.48" shape="651.52,30.43 647.80,30.30" speed="16.67"/>
      <lane disallow="tram rail_urban rail rail_electric bicycle pedestrian ship" id=":11307843_2_1" index="1" length="3.48" shape="651.54,27.13 648.31,27.00" speed="16.67"/>
   </edge>
   <edge function="internal" id=":1271823170_0">
      <lane allow="delivery bicycle pedestrian" id=":1271823170_0_0" index="0" length="6.15" shape="782.80,144.70 776.73,145.67" speed="5.56"/>
   </edge>
   <edge function="internal" id=":1271823170_1">
      <lane allow="delivery bicycle pedestrian" id=":1271823170_1_0" index="0" length="6.08" shape="782.80,144.70 781.62,144.18 780.75,143.20 780.19,141.75 779.94,139.84" speed="5.56"/>
   </edge>
   <edge function="internal" id=":1271823170_2">
      <lane allow="delivery bicycle pedestrian" id=":1271823170_2_0" index="0" length="4.63" shape="776.83,142.37 778.23,142.25 779.22,141.79 779.79,140.99 779.94,139.84" speed="5.56"/>
   </edge>
   <edge function="internal" id=":1271823170_3">
      <lane allow="delivery bicycle pedestrian" id=":1271823170_3_0" index="0" length="4.82" shape="776.83,142.37 778.04,143.23 778.43,144.07 777.99,144.88 776.73,145.67" speed="5.56"/>
   </edge>
   <edge function="internal" id=":1271823183_0">
      <lane allow="delivery bicycle pedestrian" id=":1271823183_0_0" index="0" length="6.46" shape="776.97,83.27 783.17,85.08" speed="5.56"/>
   </edge>
   <edge function="internal" id=":1271823183_1">
      <lane allow="delivery bicycle pedestrian" id=":1271823183_1_0" index="0" length="4.82" shape="776.97,83.27 778.20,84.11 778.60,84.94 778.17,85.76 776.93,86.57" speed="5.56"/>
   </edge>
   <edge function="internal" id=":1271823183_2">
      <lane allow="delivery bicycle pedestrian" id=":1271823183_2_0" index="0" length="4.99" shape="780.00,89.69 779.81,88.34 779.24,87.37 778.28,86.78 776.93,86.57" speed="5.56"/>
   </edge>
   <edge function="internal" id=":1271823183_3">
      <lane allow="delivery bicycle pedestrian" id=":1271823183_3_0" index="0" length="6.36" shape="780.00,89.69 780.20,87.63 780.80,86.17 781.79,85.33 783.17,85.08" speed="5.56"/>
   </edge>
   <edge function="internal" id=":1271823272_0">
      <lane allow="delivery bicycle pedestrian" id=":1271823272_0_0" index="0" length="6.08" shape="779.93,139.64 779.81,133.57" speed="5.56"/>
   </edge>
   <edge function="internal" id=":1271823272_1">
      <lane allow="delivery bicycle pedestrian" id=":1271823272_1_0" index="0" length="4.88" shape="779.93,139.64 780.07,138.36 780.62,137.43 781.58,136.85 782.95,136.63" speed="5.56"/>
   </edge>
   <edge function="internal" id=":1271823336_0">
      <lane disallow="tram rail_urban rail rail_electric ship" id=":1271823336_0_0" index="0" length="4.82" shape="811.35,202.08 812.37,203.16 812.59,204.05 812.00,204.76 810.61,205.29" speed="13.89"/>
   </edge>
   <edge function="internal" id=":1271823357_0">
      <lane allow="delivery bicycle pedestrian" id=":1271823357_0_0" index="0" length="4.96" shape="798.94,133.13 799.11,134.47 799.67,135.45 800.61,136.07 801.94,136.32" speed="5.56"/>
   </edge>
   <edge function="internal" id=":1271823357_1">
      <lane allow="delivery bicycle pedestrian" id=":1271823357_1_0" index="0" length="6.08" shape="795.87,136.27 801.94,136.32" speed="5.56"/>
   </edge>
   <edge function="internal" id=":1350202637_0">
      <lane allow="delivery bicycle pedestrian" id=":1350202637_0_0" index="0" length="5.39" shape="493.88,186.91 493.71,192.29" speed="5.56"/>
   </edge>
   <edge function="internal" id=":1350202637_1">
      <lane allow="delivery bicycle pedestrian" id=":1350202637_1_0" index="0" length="10.30" shape="493.88,186.91 493.39,189.64 492.12,191.59 490.07,192.75 487.25,193.14" speed="5.56"/>
   </edge>
   <edge function="internal" id=":1350202637_2">
      <lane allow="delivery bicycle pedestrian" id=":1350202637_2_0" index="0" length="4.82" shape="493.88,186.91 493.01,188.11 492.18,188.50 491.37,188.06 490.58,186.80" speed="5.56"/>
   </edge>
   <edge function="internal" id=":1350202637_3">
      <lane allow="delivery bicycle pedestrian" id=":1350202637_3_0" index="0" length="5.10" shape="487.26,189.84 488.68,189.65 489.70,189.08 490.34,188.13 490.58,186.80" speed="5.56"/>
   </edge>
   <edge function="internal" id=":1350202637_4">
      <lane allow="delivery bicycle pedestrian" id=":1350202637_4_0" index="0" length="7.47" shape="487.26,189.84 490.10,190.00 492.13,190.46 493.33,191.22 493.71,192.29" speed="5.56"/>
   </edge>
   <edge function="internal" id=":1350202637_5">
      <lane allow="delivery bicycle pedestrian" id=":1350202637_5_0" index="0" length="4.82" shape="487.26,189.84 488.50,190.67 488.91,191.49 488.49,192.32 487.25,193.14" speed="5.56"/>
   </edge>
   <edge function="internal" id=":1350202637_6">
      <lane allow="delivery bicycle pedestrian" id=":1350202637_6_0" index="0" length="4.87" shape="490.32,196.08 490.15,194.80 489.59,193.88 488.62,193.32 487.25,193.14" speed="5.56"/>
   </edge>
   <edge function="internal" id=":1350202637_7">
      <lane allow="delivery bicycle pedestrian" id=":1350202637_7_0" index="0" length="9.29" shape="490.32,196.08 490.58,186.80" speed="5.56"/>
   </edge>
   <edge function="internal" id=":1350202637_8">
      <lane allow="delivery bicycle pedestrian" id=":1350202637_8_0" index="0" length="7.43" shape="490.32,196.08 489.74,193.86 490.12,192.49 491.44,191.96 493.71,192.29" speed="5.56"/>
   </edge>
   <edge function="internal" id=":1350202642_0">
      <lane allow="delivery bicycle pedestrian" id=":1350202642_0_0" index="0" length="5.21" shape="607.45,714.56 606.03,714.76 605.01,715.35 604.37,716.34 604.13,717.73" speed="5.56"/>
   </edge>
   <edge function="internal" id=":1350202642_1">
      <lane allow="delivery bicycle pedestrian" id=":1350202642_1_0" index="0" length="9.65" shape="607.45,714.56 597.81,714.47" speed="5.56"/>
   </edge>
   <edge function="internal" id=":1350202642_2">
      <lane allow="delivery bicycle pedestrian" id=":1350202642_2_0" index="0" length="10.45" shape="607.45,714.56 604.61,714.15 602.60,712.92 601.43,710.88 601.10,708.03" speed="5.56"/>
   </edge>
   <edge function="internal" id=":1350202642_3">
      <lane allow="delivery bicycle pedestrian" id=":1350202642_3_0" index="0" length="4.82" shape="607.45,714.56 606.22,713.73 605.80,712.91 606.22,712.08 607.46,711.26" speed="5.56"/>
   </edge>
   <edge function="internal" id=":1350202642_4">
      <lane allow="delivery bicycle pedestrian" id=":1350202642_4_0" index="0" length="5.03" shape="604.40,708.12 604.56,709.49 605.12,710.47 606.09,711.06 607.46,711.26" speed="5.56"/>
   </edge>
   <edge function="internal" id=":1350202642_5">
      <lane allow="delivery bicycle pedestrian" id=":1350202642_5_0" index="0" length="9.62" shape="604.40,708.12 604.13,717.73" speed="5.56"/>
   </edge>
   <edge function="internal" id=":1350202642_6">
      <lane allow="delivery bicycle pedestrian" id=":1350202642_6_0" index="0" length="10.42" shape="604.40,708.12 603.92,710.94 602.67,712.94 600.63,714.11 597.81,714.47" speed="5.56"/>
   </edge>
   <edge function="internal" id=":1350202642_7">
      <lane allow="delivery bicycle pedestrian" id=":1350202642_7_0" index="0" length="4.82" shape="604.40,708.12 603.54,709.33 602.70,709.72 601.89,709.29 601.10,708.03" speed="5.56"/>
   </edge>
   <edge function="internal" id=":1350202642_8">
      <lane allow="delivery bicycle pedestrian" id=":1350202642_8_0" index="0" length="5.13" shape="597.87,711.17 599.25,710.99 600.25,710.41 600.87,709.42 601.10,708.03" speed="5.56"/>
   </edge>
   <edge function="internal" id=":1350202642_9">
      <lane allow="delivery bicycle pedestrian" id=":1350202642_9_0" index="0" length="9.59" shape="597.87,711.17 607.46,711.26" speed="5.56"/>
   </edge>
   <edge function="internal" id=":1350202642_10">
      <lane allow="delivery bicycle pedestrian" id=":1350202642_10_0" index="0" length="10.37" shape="597.87,711.17 600.68,711.62 602.66,712.87 603.81,714.91 604.13,717.73" speed="5.56"/>
   </edge>
   <edge function="internal" id=":1350202642_11">
      <lane allow="delivery bicycle pedestrian" id=":1350202642_11_0" index="0" length="4.82" shape="597.87,711.17 599.09,712.01 599.49,712.85 599.06,713.66 597.81,714.47" speed="5.56"/>
   </edge>
   <edge function="internal" id=":1350202642_12">
      <lane allow="delivery bicycle pedestrian" id=":1350202642_12_0" index="0" length="5.01" shape="600.83,717.64 600.68,716.27 600.12,715.29 599.17,714.69 597.81,714.47" speed="5.56"/>
   </edge>
   <edge function="internal" id=":1350202642_13">
      <lane allow="delivery bicycle pedestrian" id=":1350202642_13_0" index="0" length="9.61" shape="600.83,717.64 601.10,708.03" speed="5.56"/>
   </edge>
   <edge function="internal" id=":1350202642_14">
      <lane allow="delivery bicycle pedestrian" id=":1350202642_14_0" index="0" length="10.42" shape="600.83,717.64 601.32,714.85 602.58,712.85 604.63,711.66 607.46,711.26" speed="5.56"/>
   </edge>
   <edge function="internal" id=":1350202642_15">
      <lane allow="delivery bicycle pedestrian" id=":1350202642_15_0" index="0" length="4.82" shape="600.83,717.64 601.69,716.43 602.53,716.04 603.34,716.47 604.13,717.73" speed="5.56"/>
   </edge>
   <edge function="internal" id=":1350202648_0">
      <lane allow="delivery bicycle pedestrian" id=":1350202648_0_0" index="0" length="4.82" shape="785.40,217.10 786.37,215.98 787.24,215.68 788.01,216.19 788.67,217.53" speed="5.56"/>
   </edge>
   <edge function="internal" id=":1350202653_0">
      <lane allow="delivery bicycle pedestrian" id=":1350202653_0_0" index="0" length="4.82" shape="562.82,196.40 564.05,197.25 564.45,198.08 564.02,198.90 562.77,199.70" speed="5.56"/>
   </edge>
   <edge function="internal" id=":1350202666_0">
      <lane allow="delivery bicycle pedestrian" id=":1350202666_0_0" index="0" length="5.03" shape="494.63,633.32 493.25,633.49 492.25,634.06 491.62,635.01 491.37,636.34" speed="5.56"/>
   </edge>
   <edge function="internal" id=":1350202666_1">
      <lane allow="delivery bicycle pedestrian" id=":1350202666_1_0" index="0" length="10.31" shape="494.63,633.32 491.84,632.89 489.85,631.67 488.67,629.66 488.29,626.86" speed="5.56"/>
   </edge>
   <edge function="internal" id=":1350202666_2">
      <lane allow="delivery bicycle pedestrian" id=":1350202666_2_0" index="0" length="4.82" shape="494.63,633.32 493.40,632.48 493.00,631.65 493.42,630.83 494.66,630.02" speed="5.56"/>
   </edge>
   <edge function="internal" id=":1350202666_3">
      <lane allow="delivery bicycle pedestrian" id=":1350202666_3_0" index="0" length="5.00" shape="491.59,626.89 491.77,628.25 492.35,629.22 493.31,629.81 494.66,630.02" speed="5.56"/>
   </edge>
   <edge function="internal" id=":1350202666_4">
      <lane allow="delivery bicycle pedestrian" id=":1350202666_4_0" index="0" length="9.45" shape="491.59,626.89 491.37,636.34" speed="5.56"/>
   </edge>
   <edge function="internal" id=":1350202666_5">
      <lane allow="delivery bicycle pedestrian" id=":1350202666_5_0" index="0" length="4.82" shape="491.59,626.89 490.75,628.12 489.93,628.53 489.10,628.11 488.29,626.86" speed="5.56"/>
   </edge>
   <edge function="internal" id=":1350202666_6">
      <lane allow="delivery bicycle pedestrian" id=":1350202666_6_0" index="0" length="9.35" shape="488.08,636.21 488.29,626.86" speed="5.56"/>
   </edge>
   <edge function="internal" id=":1350202666_7">
      <lane allow="delivery bicycle pedestrian" id=":1350202666_7_0" index="0" length="10.25" shape="488.08,636.21 488.58,633.48 489.84,631.54 491.87,630.38 494.66,630.02" speed="5.56"/>
   </edge>
   <edge function="internal" id=":1350202666_8">
      <lane allow="delivery bicycle pedestrian" id=":1350202666_8_0" index="0" length="4.82" shape="488.08,636.21 488.95,635.01 489.79,634.63 490.60,635.07 491.37,636.34" speed="5.56"/>
   </edge>
   <edge function="internal" id=":1350202684_0">
      <lane allow="delivery bicycle pedestrian" id=":1350202684_0_0" index="0" length="5.05" shape="497.84,156.21 496.45,156.33 495.45,156.86 494.84,157.82 494.62,159.19" speed="9.72"/>
   </edge>
   <edge function="internal" id=":1350202684_1">
      <lane disallow="tram rail_urban rail rail_electric ship" id=":1350202684_1_0" index="0" length="9.56" shape="497.84,156.21 488.28,155.83" speed="13.89"/>
   </edge>
   <edge function="internal" id=":1350202684_2">
      <lane disallow="tram rail_urban rail rail_electric ship" id=":1350202684_2_0" index="0" length="2.41" shape="497.84,156.21 496.65,155.32 496.29,154.47" speed="13.89"/>
   </edge>
   <edge function="internal" id=":1350202684_9">
      <lane id=":1350202684_9_0" index="0" length="2.41" shape="496.29,154.47 496.75,153.67 498.04,152.92" speed="13.89"/>
   </edge>
   <edge function="internal" id=":1350202684_3">
      <lane disallow="tram rail_urban rail rail_electric ship" id=":1350202684_3_0" index="0" length="9.70" shape="488.35,152.53 498.04,152.92" speed="13.89"/>
   </edge>
   <edge function="internal" id=":1350202684_4">
      <lane allow="delivery bicycle pedestrian" id=":1350202684_4_0" index="0" length="5.37" shape="488.35,152.53 491.14,152.99 493.11,154.26 493.21,154.43" speed="9.72"/>
   </edge>
   <edge function="internal" id=":1350202684_5">
      <lane disallow="tram rail_urban rail rail_electric ship" id=":1350202684_5_0" index="0" length="2.41" shape="488.35,152.53 489.57,153.38 489.97,154.21" speed="13.89"/>
   </edge>
   <edge function="internal" id=":1350202684_10">
      <lane id=":1350202684_10_0" index="0" length="5.06" shape="493.21,154.43 494.27,156.32 494.62,159.19" speed="9.72"/>
   </edge>
   <edge function="internal" id=":1350202684_11">
      <lane id=":1350202684_11_0" index="0" length="2.41" shape="489.97,154.21 489.54,155.03 488.28,155.83" speed="13.89"/>
   </edge>
   <edge function="internal" id=":1350202684_6">
      <lane disallow="tram rail_urban rail rail_electric ship" id=":1350202684_6_0" index="0" length="5.11" shape="491.32,159.12 491.15,157.70 490.59,156.68 489.63,156.06 488.28,155.83" speed="9.72"/>
   </edge>
   <edge function="internal" id=":1350202684_7">
      <lane disallow="tram rail_urban rail rail_electric ship" id=":1350202684_7_0" index="0" length="10.53" shape="491.32,159.12 491.79,156.26 493.06,154.27 495.15,153.16 498.04,152.92" speed="9.72"/>
   </edge>
   <edge function="internal" id=":1350202684_8">
      <lane allow="delivery bicycle pedestrian" id=":1350202684_8_0" index="0" length="4.82" shape="491.32,159.12 492.17,157.90 493.00,157.51 493.82,157.94 494.62,159.19" speed="5.56"/>
   </edge>
   <edge function="internal" id=":1350202694_0">
      <lane allow="delivery bicycle pedestrian" id=":1350202694_0_0" index="0" length="4.82" shape="721.54,317.40 722.38,316.17 723.21,315.76 724.03,316.18 724.84,317.42" speed="5.56"/>
   </edge>
   <edge function="internal" id=":1350202700_0">