<?xml version="1.0" encoding="utf-8"?><!-- generated on 10/11/17 17:56:50 by SUMO netconvert Version 0.25.0
<?xml version="1.0" encoding="UTF-8"?>

<configuration xmlns:xsi="http://www.w3.org/2001/XMLSchema-instance" xsi:noNamespaceSchemaLocation="http://sumo.dlr.de/xsd/netconvertConfiguration.xsd">

    <input>
        <type-files value="osmNetconvert.typ.xml"/>
        <osm-files value="M_Milbertsh_urban_800.osm"/>
    </input>

    <output>
        <output-file value="M_Milbertsh_urban_800.net.xml"/>
    </output>

    <projection>
        <proj.utm value="true"/>
    </projection>

    <edge_removal>
        <remove-edges.by-type value="highway.track,highway.unsurfaced,highway.raceway,highway.bridleway,highway.path,highway.footway,highway.pedestrian,highway.cycleway,highway.step,highway.steps,highway.stairs,highway.bus_guideway,highway.ford,railway.rail,railway.tram,railway.light_rail,railway.subway,railway.preserved,railway.narrow_gauge,railway.monorail,railway.funicular"/>
    </edge_removal>

</configuration>
-->
<net version="0.25">
   <location convBoundary="0.00,0.00,816.43,801.79" netOffset="-691321.48,-5339632.86" origBoundary="11.574150,48.180931,11.584961,48.188093" projParameter="+proj=utm +zone=32 +ellps=WGS84 +datum=WGS84 +units=m +no_defs"/>
   <type allow="pedestrian" id="highway.bridleway" numLanes="1" oneway="1" priority="1" speed="2.78" width="2.00"/>
   <type allow="bus" id="highway.bus_guideway" numLanes="1" oneway="1" priority="1" speed="8.33"/>
   <type allow="bicycle" id="highway.cycleway" numLanes="1" oneway="0" priority="1" speed="5.56" width="1.00"/>
   <type allow="pedestrian" id="highway.footway" numLanes="1" oneway="1" priority="1" speed="8.33" width="2.00"/>
   <type allow="army" id="highway.ford" numLanes="1" oneway="0" priority="1" speed="2.78"/>
   <type disallow="tram rail_urban rail rail_electric ship" id="highway.living_street" numLanes="1" oneway="0" priority="3" speed="2.78"/>
   <type allow="private emergency authority army vip passenger hov taxi bus coach delivery truck trailer motorcycle evehicle custom1 custom2" id="highway.motorway" numLanes="2" oneway="1" priority="13" speed="44.44"/>
   <type allow="private emergency authority army vip passenger hov taxi bus coach delivery truck trailer motorcycle evehicle custom1 custom2" id="highway.motorway_link" numLanes="1" oneway="1" priority="12" speed="22.22"/>
   <type allow="bicycle pedestrian" id="highway.path" numLanes="1" oneway="1" priority="1" speed="2.78" width="2.00"/>
   <type allow="pedestrian" id="highway.pedestrian" numLanes="1" oneway="1" priority="1" speed="8.33" width="2.00"/>
   <type disallow="tram rail_urban rail rail_electric ship" id="highway.primary" numLanes="2" oneway="0" priority="9" speed="27.78"/>
   <type disallow="tram rail_urban rail rail_electric ship" id="highway.primary_link" numLanes="1" oneway="0" priority="8" speed="22.22"/>
   <type allow="vip" id="highway.raceway" numLanes="2" oneway="0" priority="14" speed="83.33"/>
   <type disallow="tram rail_urban rail rail_electric ship" id="highway.residential" numLanes="1" oneway="0" priority="4" speed="13.89"/>
   <type disallow="tram rail_urban rail rail_electric ship" id="highway.secondary" numLanes="2" oneway="0" priority="7" speed="27.78"/>
   <type disallow="tram rail_urban rail rail_electric ship" id="highway.secondary_link" numLanes="1" oneway="0" priority="6" speed="22.22"/>
   <type allow="delivery bicycle pedestrian" id="highway.service" numLanes="1" oneway="0" priority="2" speed="5.56"/>
   <type disallow="tram rail_urban rail rail_electric ship" id="highway.services" numLanes="1" oneway="0" priority="1" speed="8.33"/>
   <type allow="pedestrian" id="highway.stairs" numLanes="1" oneway="1" priority="1" speed="1.39" width="2.00"/>
   <type allow="pedestrian" id="highway.step" numLanes="1" oneway="1" priority="1" speed="1.39" width="2.00"/>
   <type allow="pedestrian" id="highway.steps" numLanes="1" oneway="1" priority="1" speed="1.39" width="2.00"/>
   <type disallow="tram rail_urban rail rail_electric ship" id="highway.tertiary" numLanes="1" oneway="0" priority="6" speed="22.22"/>
   <type disallow="tram rail_urban rail rail_electric ship" id="highway.tertiary_link" numLanes="1" oneway="0" priority="5" speed="22.22"/>
   <type disallow="tram rail_urban rail rail_electric ship" id="highway.track" numLanes="1" oneway="0" priority="1" speed="5.56"/>
   <type disallow="tram rail_urban rail rail_electric bicycle pedestrian ship" id="highway.trunk" numLanes="2" oneway="0" priority="11" speed="27.78"/>
   <type disallow="tram rail_urban rail rail_electric bicycle pedestrian ship" id="highway.trunk_link" numLanes="1" oneway="0" priority="10" speed="22.22"/>
   <type disallow="tram rail_urban rail rail_electric ship" id="highway.unclassified" numLanes="1" oneway="0" priority="5" speed="13.89"/>
   <type disallow="tram rail_urban rail rail_electric ship" id="highway.unsurfaced" numLanes="1" oneway="0" priority="1" speed="8.33"/>
   <type allow="rail_urban" id="railway.light_rail" numLanes="1" oneway="1" priority="15" speed="27.78"/>
   <type allow="rail" id="railway.preserved" numLanes="1" oneway="1" priority="15" speed="27.78"/>
   <type allow="rail rail_electric" id="railway.rail" numLanes="1" oneway="1" priority="15" speed="83.33"/>
   <type allow="rail_urban" id="railway.subway" numLanes="1" oneway="1" priority="15" speed="27.78"/>
   <type allow="tram" id="railway.tram" numLanes="1" oneway="1" priority="15" speed="13.89"/>
   <edge function="internal" id=":1015956663_0">
      <lane disallow="tram rail_urban rail rail_electric ship" id=":1015956663_0_0" index="0" length="4.82" shape="717.61,28.40 718.44,27.17 719.27,26.76 720.09,27.17 720.91,28.42" speed="8.33"/>
   </edge>
   <edge function="internal" id=":1015994241_0">
      <lane disallow="tram rail_urban rail rail_electric ship" id=":1015994241_0_0" index="0" length="0.32" shape="149.87,490.79 149.85,490.47" speed="8.33"/>
   </edge>
   <edge function="internal" id=":1015994241_1">
      <lane disallow="tram rail_urban rail rail_electric ship" id=":1015994241_1_0" index="0" length="2.41" shape="149.87,490.79 150.59,489.49 151.38,489.01" speed="8.33"/>
   </edge>
   <edge function="internal" id=":1015994241_4">
      <lane id=":1015994241_4_0" index="0" length="2.41" shape="151.38,489.01 152.24,489.36 153.16,490.53" speed="8.33"/>
   </edge>
   <edge function="internal" id=":1015994241_2">
      <lane disallow="tram rail_urban rail rail_electric ship" id=":1015994241_2_0" index="0" length="0.10" shape="153.15,490.42 153.16,490.53" speed="8.33"/>
   </edge>
   <edge function="internal" id=":1015994241_3">
      <lane disallow="tram rail_urban rail rail_electric ship" id=":1015994241_3_0" index="0" length="2.41" shape="153.15,490.42 152.34,491.67 151.53,492.10" speed="8.33"/>
   </edge>
   <edge function="internal" id=":1015994241_5">
      <lane id=":1015994241_5_0" index="0" length="2.41" shape="151.53,492.10 150.69,491.69 149.85,490.47" speed="8.33"/>
   </edge>
   <edge function="internal" id=":1015994253_0">
      <lane disallow="tram rail_urban rail rail_electric ship" id=":1015994253_0_0" index="0" length="0.10" shape="74.61,167.62 74.61,167.63" speed="8.33"/>
   </edge>
   <edge function="internal" id=":1027176636_0">
      <lane disallow="tram rail_urban rail rail_electric ship" id=":1027176636_0_0" index="0" length="8.13" shape="8.70,375.23 8.88,373.00 9.75,371.39 11.28,370.40 13.49,370.04" speed="6.95"/>
   </edge>
   <edge function="internal" id=":1027176636_1">
      <lane allow="delivery bicycle pedestrian" id=":1027176636_1_0" index="0" length="4.82" shape="8.70,375.23 9.45,373.95 10.25,373.49 11.10,373.85 11.99,375.04" speed="5.56"/>
   </edge>
   <edge function="internal" id=":1027176636_2">
      <lane allow="delivery bicycle pedestrian" id=":1027176636_2_0" index="0" length="2.66" shape="13.56,373.34 12.84,373.46 12.33,373.78 12.05,374.31 11.99,375.04" speed="6.95"/>
   </edge>
   <edge function="internal" id=":1027176636_3">
      <lane disallow="tram rail_urban rail rail_electric ship" id=":1027176636_3_0" index="0" length="4.82" shape="13.56,373.34 12.31,372.54 11.88,371.72 12.27,370.89 13.49,370.04" speed="8.33"/>
   </edge>
   <edge function="internal" id=":1027176855_0">
      <lane disallow="tram rail_urban rail rail_electric ship" id=":1027176855_0_0" index="0" length="0.10" shape="43.28,638.85 43.31,638.86" speed="8.33"/>
   </edge>
   <edge function="internal" id=":1027176855_1">
      <lane disallow="tram rail_urban rail rail_electric ship" id=":1027176855_1_0" index="0" length="2.41" shape="43.28,638.85 42.12,637.93 41.78,637.07" speed="8.33"/>
   </edge>
   <edge function="internal" id=":1027176855_4">
      <lane id=":1027176855_4_0" index="0" length="2.41" shape="41.78,637.07 42.26,636.28 43.56,635.56" speed="8.33"/>
   </edge>
   <edge function="internal" id=":1027176855_2">
      <lane disallow="tram rail_urban rail rail_electric ship" id=":1027176855_2_0" index="0" length="0.10" shape="43.55,635.56 43.56,635.56" speed="8.33"/>
   </edge>
   <edge function="internal" id=":1027176855_3">
      <lane disallow="tram rail_urban rail rail_electric ship" id=":1027176855_3_0" index="0" length="2.41" shape="43.55,635.56 44.73,636.48 45.08,637.33" speed="8.33"/>
   </edge>
   <edge function="internal" id=":1027176855_5">
      <lane id=":1027176855_5_0" index="0" length="2.41" shape="45.08,637.33 44.61,638.12 43.31,638.86" speed="8.33"/>
   </edge>
   <edge function="internal" id=":1027176966_0">
      <lane disallow="tram rail_urban rail rail_electric ship" id=":1027176966_0_0" index="0" length="0.10" shape="51.33,521.55 51.33,521.55" speed="8.33"/>
   </edge>
   <edge function="internal" id=":1027176966_1">
      <lane disallow="tram rail_urban rail rail_electric ship" id=":1027176966_1_0" index="0" length="2.41" shape="51.33,521.55 50.08,520.74 49.65,519.93" speed="8.33"/>
   </edge>
   <edge function="internal" id=":1027176966_4">
      <lane id=":1027176966_4_0" index="0" length="2.41" shape="49.65,519.93 50.05,519.10 51.28,518.25" speed="8.33"/>
   </edge>
   <edge function="internal" id=":1027176966_2">
      <lane disallow="tram rail_urban rail rail_electric ship" id=":1027176966_2_0" index="0" length="0.10" shape="51.28,518.25 51.28,518.25" speed="8.33"/>
   </edge>
   <edge function="internal" id=":1027176966_3">
      <lane disallow="tram rail_urban rail rail_electric ship" id=":1027176966_3_0" index="0" length="2.41" shape="51.28,518.25 52.53,519.06 52.96,519.88" speed="8.33"/>
   </edge>
   <edge function="internal" id=":1027176966_5">
      <lane id=":1027176966_5_0" index="0" length="2.41" shape="52.96,519.88 52.56,520.71 51.33,521.55" speed="8.33"/>
   </edge>
   <edge function="internal" id=":1027177218_0">
      <lane disallow="tram rail_urban rail rail_electric ship" id=":1027177218_0_0" index="0" length="0.10" shape="67.52,640.92 67.52,640.92" speed="8.33"/>
   </edge>
   <edge function="internal" id=":1027177218_1">
      <lane disallow="tram rail_urban rail rail_electric ship" id=":1027177218_1_0" index="0" length="2.41" shape="67.52,640.92 66.35,639.99 66.01,639.14" speed="8.33"/>
   </edge>
   <edge function="internal" id=":1027177218_4">
      <lane id=":1027177218_4_0" index="0" length="2.41" shape="66.01,639.14 66.50,638.35 67.80,637.63" speed="8.33"/>
   </edge>
   <edge function="internal" id=":1027177218_2">
      <lane disallow="tram rail_urban rail rail_electric ship" id=":1027177218_2_0" index="0" length="0.10" shape="67.80,637.63 67.80,637.63" speed="8.33"/>
   </edge>
   <edge function="internal" id=":1027177218_3">
      <lane disallow="tram rail_urban rail rail_electric ship" id=":1027177218_3_0" index="0" length="2.41" shape="67.80,637.63 68.96,638.56 69.30,639.42" speed="8.33"/>
   </edge>
   <edge function="internal" id=":1027177218_5">
      <lane id=":1027177218_5_0" index="0" length="2.41" shape="69.30,639.42 68.82,640.21 67.52,640.92" speed="8.33"/>
   </edge>
   <edge function="internal" id=":1027177702_0">
      <lane disallow="tram rail_urban rail rail_electric ship" id=":1027177702_0_0" index="0" length="0.10" shape="66.31,521.34 66.30,521.34" speed="8.33"/>
   </edge>
   <edge function="internal" id=":1027177702_1">
      <lane disallow="tram rail_urban rail rail_electric ship" id=":1027177702_1_0" index="0" length="2.41" shape="66.31,521.34 65.06,520.54 64.63,519.72" speed="8.33"/>
   </edge>
   <edge function="internal" id=":1027177702_4">
      <lane id=":1027177702_4_0" index="0" length="2.41" shape="64.63,519.72 65.03,518.89 66.25,518.04" speed="8.33"/>
   </edge>
   <edge function="internal" id=":1027177702_2">
      <lane disallow="tram rail_urban rail rail_electric ship" id=":1027177702_2_0" index="0" length="0.10" shape="66.26,518.04 66.25,518.04" speed="8.33"/>
   </edge>
   <edge function="internal" id=":1027177702_3">
      <lane disallow="tram rail_urban rail rail_electric ship" id=":1027177702_3_0" index="0" length="2.41" shape="66.26,518.04 67.51,518.85 67.93,519.67" speed="8.33"/>
   </edge>
   <edge function="internal" id=":1027177702_5">
      <lane id=":1027177702_5_0" index="0" length="2.41" shape="67.93,519.67 67.53,520.50 66.30,521.34" speed="8.33"/>
   </edge>
   <edge function="internal" id=":1027177907_0">
      <lane allow="delivery bicycle pedestrian" id=":1027177907_0_0" index="0" length="4.82" shape="16.13,464.76 15.36,466.03 14.55,466.48 13.71,466.10 12.83,464.90" speed="5.56"/>
   </edge>
   <edge function="internal" id=":1042772021_0">
      <lane disallow="tram rail_urban rail rail_electric ship" id=":1042772021_0_0" index="0" length="0.10" shape="780.24,364.49 780.23,364.53" speed="13.89"/>
      <lane disallow="tram rail_urban rail rail_electric ship" id=":1042772021_0_1" index="1" length="0.10" shape="783.52,364.83 783.52,364.84" speed="13.89"/>
      <lane disallow="tram rail_urban rail rail_electric ship" id=":1042772021_0_2" index="2" length="0.10" shape="786.80,365.18 786.80,365.14" speed="13.89"/>
   </edge>
   <edge function="internal" id=":1042772260_0">
      <lane disallow="tram rail_urban rail rail_electric ship" id=":1042772260_0_0" index="0" length="0.11" shape="800.01,365.96 800.01,366.04" speed="13.89"/>
      <lane disallow="tram rail_urban rail rail_electric ship" id=":1042772260_0_1" index="1" length="0.11" shape="796.72,365.72 796.72,365.73" speed="13.89"/>
      <lane disallow="tram rail_urban rail rail_electric ship" id=":1042772260_0_2" index="2" length="0.11" shape="793.43,365.47 793.44,365.44" speed="13.89"/>
      <lane disallow="tram rail_urban rail rail_electric ship" id=":1042772260_0_3" index="3" length="0.11" shape="790.15,365.11 790.14,365.25" speed="13.89"/>
   </edge>
   <edge function="internal" id=":1043141463_0">
      <lane disallow="tram rail_urban rail rail_electric ship" id=":1043141463_0_0" index="0" length="0.10" shape="314.43,465.01 314.43,465.01" speed="8.33"/>
   </edge>
   <edge function="internal" id=":1119101638_0">
      <lane disallow="tram rail_urban rail rail_electric ship" id=":1119101638_0_0" index="0" length="0.10" shape="774.55,405.84 774.55,405.83" speed="13.89"/>
      <lane disallow="tram rail_urban rail rail_electric ship" id=":1119101638_0_1" index="1" length="0.10" shape="777.83,406.13 777.83,406.13" speed="13.89"/>
      <lane disallow="tram rail_urban rail rail_electric ship" id=":1119101638_0_2" index="2" length="0.10" shape="781.12,406.40 781.12,406.43" speed="13.89"/>
      <lane disallow="tram rail_urban rail rail_electric ship" id=":1119101638_0_3" index="3" length="0.10" shape="784.41,406.65 784.41,406.73" speed="13.89"/>
   </edge>
   <edge function="internal" id=":1119101645_0">
      <lane disallow="tram rail_urban rail rail_electric ship" id=":1119101645_0_0" index="0" length="0.10" shape="793.38,399.93 793.38,399.91" speed="13.89"/>
      <lane disallow="tram rail_urban rail rail_electric ship" id=":1119101645_0_1" index="1" length="0.10" shape="790.09,399.59 790.09,399.59" speed="13.89"/>
   </edge>
   <edge function="internal" id=":112565892_0">
      <lane disallow="tram rail_urban rail rail_electric ship" id=":112565892_0_0" index="0" length="6.29" shape="512.79,662.87 506.49,662.82" speed="8.33"/>
   </edge>
   <edge function="internal" id=":112565892_1">
      <lane disallow="tram rail_urban rail rail_electric ship" id=":112565892_1_0" index="0" length="4.82" shape="512.79,662.87 511.55,662.04 511.15,661.21 511.57,660.39 512.81,659.57" speed="8.33"/>
   </edge>
   <edge function="internal" id=":112565892_2">
      <lane disallow="tram rail_urban rail rail_electric ship" id=":112565892_2_0" index="0" length="5.38" shape="509.28,656.12 509.78,657.62 510.54,658.70 511.55,659.35 512.81,659.57" speed="8.33"/>
   </edge>
   <edge function="internal" id=":112565892_3">
      <lane disallow="tram rail_urban rail rail_electric ship" id=":112565892_3_0" index="0" length="8.55" shape="509.28,656.12 509.66,659.06 509.32,661.16 508.27,662.41 506.49,662.82" speed="8.33"/>
   </edge>
   <edge function="internal" id=":112565892_4">
      <lane disallow="tram rail_urban rail rail_electric ship" id=":112565892_4_0" index="0" length="6.29" shape="506.52,659.52 512.81,659.57" speed="8.33"/>
   </edge>
   <edge function="internal" id=":112565892_5">
      <lane disallow="tram rail_urban rail rail_electric ship" id=":112565892_5_0" index="0" length="4.82" shape="506.52,659.52 507.75,660.35 508.16,661.18 507.74,662.00 506.49,662.82" speed="8.33"/>
   </edge>
   <edge function="internal" id=":112565901_0">
      <lane allow="delivery bicycle pedestrian" id=":112565901_0_0" index="0" length="5.04" shape="610.16,664.23 608.80,664.37 607.80,664.92 607.19,665.88 606.94,667.26" speed="6.95"/>
   </edge>
   <edge function="internal" id=":112565901_1">
      <lane disallow="tram rail_urban rail rail_electric ship" id=":112565901_1_0" index="0" length="9.54" shape="610.16,664.23 600.62,663.96" speed="8.33"/>
   </edge>
   <edge function="internal" id=":112565901_2">
      <lane disallow="tram rail_urban rail rail_electric ship" id=":112565901_2_0" index="0" length="2.41" shape="610.16,664.23 608.96,663.36 608.58,662.51" speed="8.33"/>
   </edge>
   <edge function="internal" id=":112565901_9">
      <lane id=":112565901_9_0" index="0" length="2.41" shape="608.58,662.51 609.03,661.71 610.30,660.93" speed="8.33"/>
   </edge>
   <edge function="internal" id=":112565901_3">
      <lane disallow="tram rail_urban rail rail_electric ship" id=":112565901_3_0" index="0" length="9.63" shape="600.67,660.66 610.30,660.93" speed="8.33"/>
   </edge>
   <edge function="internal" id=":112565901_4">
      <lane allow="delivery bicycle pedestrian" id=":112565901_4_0" index="0" length="5.38" shape="600.67,660.66 603.50,661.11 605.49,662.36 605.57,662.50" speed="6.95"/>
   </edge>
   <edge function="internal" id=":112565901_5">
      <lane disallow="tram rail_urban rail rail_electric ship" id=":112565901_5_0" index="0" length="2.41" shape="600.67,660.66 601.90,661.50 602.30,662.33" speed="8.33"/>
   </edge>
   <edge function="internal" id=":112565901_10">
      <lane id=":112565901_10_0" index="0" length="5.05" shape="605.57,662.50 606.64,664.41 606.94,667.26" speed="6.95"/>
   </edge>
   <edge function="internal" id=":112565901_11">
      <lane id=":112565901_11_0" index="0" length="2.41" shape="602.30,662.33 601.87,663.15 600.62,663.96" speed="8.33"/>
   </edge>
   <edge function="internal" id=":112565901_6">
      <lane disallow="tram rail_urban rail rail_electric ship" id=":112565901_6_0" index="0" length="5.02" shape="603.64,667.14 603.50,665.77 602.95,664.78 601.99,664.18 600.62,663.96" speed="6.95"/>
   </edge>
   <edge function="internal" id=":112565901_7">
      <lane disallow="tram rail_urban rail rail_electric ship" id=":112565901_7_0" index="0" length="10.39" shape="603.64,667.14 604.15,664.32 605.42,662.35 607.48,661.22 610.30,660.93" speed="6.95"/>
   </edge>
   <edge function="internal" id=":112565901_8">
      <lane allow="delivery bicycle pedestrian" id=":112565901_8_0" index="0" length="4.82" shape="603.64,667.14 604.51,665.93 605.35,665.55 606.16,665.99 606.94,667.26" speed="5.56"/>
   </edge>
   <edge function="internal" id=":1240343828_0">
      <lane allow="delivery bicycle pedestrian" id=":1240343828_0_0" index="0" length="4.82" shape="271.19,609.06 269.96,608.22 269.55,607.39 269.97,606.57 271.22,605.76" speed="5.56"/>
   </edge>
   <edge function="internal" id=":1271985523_0">
      <lane disallow="tram rail_urban rail rail_electric ship" id=":1271985523_0_0" index="0" length="0.10" shape="69.77,364.28 69.77,364.29" speed="8.33"/>
   </edge>
   <edge function="internal" id=":1271985525_0">
      <lane disallow="tram rail_urban rail rail_electric ship" id=":1271985525_0_0" index="0" length="0.10" shape="149.60,360.77 149.60,360.76" speed="8.33"/>
   </edge>
   <edge function="internal" id=":1271985530_0">
      <lane disallow="tram rail_urban rail rail_electric ship" id=":1271985530_0_0" index="0" length="0.10" shape="115.99,370.64 115.99,370.64" speed="8.33"/>
   </edge>
   <edge function="internal" id=":1271985530_1">
      <lane disallow="tram rail_urban rail rail_electric ship" id=":1271985530_1_0" index="0" length="2.41" shape="115.99,370.64 114.71,369.90 114.24,369.10" speed="8.33"/>
   </edge>
   <edge function="internal" id=":1271985530_4">
      <lane id=":1271985530_4_0" index="0" length="2.41" shape="114.24,369.10 114.60,368.25 115.78,367.35" speed="8.33"/>
   </edge>
   <edge function="internal" id=":1271985530_2">
      <lane disallow="tram rail_urban rail rail_electric ship" id=":1271985530_2_0" index="0" length="0.10" shape="115.83,367.34 115.78,367.35" speed="8.33"/>
   </edge>
   <edge function="internal" id=":1271985530_3">
      <lane disallow="tram rail_urban rail rail_electric ship" id=":1271985530_3_0" index="0" length="2.41" shape="115.83,367.34 117.11,368.11 117.56,368.92" speed="8.33"/>
   </edge>
   <edge function="internal" id=":1271985530_5">
      <lane id=":1271985530_5_0" index="0" length="2.41" shape="117.56,368.92 117.19,369.76 115.99,370.64" speed="8.33"/>
   </edge>
   <edge function="internal" id=":1271985572_0">
      <lane disallow="tram rail_urban rail rail_electric ship" id=":1271985572_0_0" index="0" length="0.10" shape="298.31,355.20 298.31,355.18" speed="8.33"/>
   </edge>
   <edge function="internal" id=":1325967174_0">
      <lane disallow="tram rail_urban rail rail_electric ship" id=":1325967174_0_0" index="0" length="0.10" shape="808.53,87.66 808.53,87.66" speed="13.89"/>
      <lane disallow="tram rail_urban rail rail_electric ship" id=":1325967174_0_1" index="1" length="0.10" shape="811.82,87.98 811.82,87.98" speed="13.89"/>
   </edge>
   <edge function="internal" id=":1341954379_0">
      <lane allow="delivery bicycle pedestrian" id=":1341954379_0_0" index="0" length="4.82" shape="268.43,592.79 267.17,591.99 266.74,591.18 267.13,590.34 268.34,589.49" speed="5.56"/>
   </edge>
   <edge function="internal" id=":1341954394_0">
      <lane disallow="tram rail_urban rail rail_electric ship" id=":1341954394_0_0" index="0" length="9.53" shape="323.15,584.49 323.54,594.01" speed="8.33"/>
   </edge>
   <edge function="internal" id=":1341954394_1">
      <lane allow="delivery bicycle pedestrian" id=":1341954394_1_0" index="0" length="7.91" shape="323.15,584.49 323.09,587.29 322.60,589.32 321.66,590.57 320.29,591.06" speed="6.95"/>
   </edge>
   <edge function="internal" id=":1341954394_2">
      <lane disallow="tram rail_urban rail rail_electric ship" id=":1341954394_2_0" index="0" length="7.94" shape="320.08,587.77 321.52,588.08 322.57,589.22 323.25,591.20 323.54,594.01" speed="6.95"/>
   </edge>
   <edge function="internal" id=":1341954394_3">
      <lane allow="delivery bicycle pedestrian" id=":1341954394_3_0" index="0" length="4.82" shape="320.08,587.77 321.37,588.51 321.84,589.31 321.48,590.16 320.29,591.06" speed="5.56"/>
   </edge>
   <edge function="internal" id=":1341954443_0">
      <lane disallow="tram rail_urban rail rail_electric ship" id=":1341954443_0_0" index="0" length="9.52" shape="323.82,603.06 324.08,612.58" speed="8.33"/>
   </edge>
   <edge function="internal" id=":1341954443_1">
      <lane allow="delivery bicycle pedestrian" id=":1341954443_1_0" index="0" length="7.96" shape="323.82,603.06 323.70,605.89 323.14,607.90 322.15,609.11 320.72,609.50" speed="6.95"/>
   </edge>
   <edge function="internal" id=":1341954443_2">
      <lane disallow="tram rail_urban rail rail_electric ship" id=":1341954443_2_0" index="0" length="7.92" shape="320.75,606.20 322.15,606.61 323.17,607.81 323.81,609.80 324.08,612.58" speed="6.95"/>
   </edge>
   <edge function="internal" id=":1341954443_3">
      <lane allow="delivery bicycle pedestrian" id=":1341954443_3_0" index="0" length="4.82" shape="320.75,606.20 321.98,607.03 322.39,607.86 321.97,608.68 320.72,609.50" speed="5.56"/>
   </edge>
   <edge function="internal" id=":1365542991_0">
      <lane allow="delivery bicycle pedestrian" id=":1365542991_0_0" index="0" length="2.55" shape="564.12,3.50 563.60,3.04 563.06,2.85 562.49,2.94 561.89,3.30" speed="4.17"/>
   </edge>
   <edge function="internal" id=":1365542991_1">
      <lane disallow="tram rail_urban rail rail_electric ship" id=":1365542991_1_0" index="0" length="4.82" shape="564.12,3.50 563.95,2.03 564.31,1.18 565.21,0.96 566.64,1.37" speed="2.78"/>
   </edge>
   <edge function="internal" id=":1365542991_2">
      <lane disallow="tram rail_urban rail rail_electric ship" id=":1365542991_2_0" index="0" length="7.80" shape="559.80,0.75 561.62,-0.36 563.37,-0.62 565.04,-0.05 566.64,1.37" speed="4.17"/>
   </edge>
   <edge function="internal" id=":1365542991_3">
      <lane allow="delivery bicycle pedestrian" id=":1365542991_3_0" index="0" length="4.82" shape="559.80,0.75 561.28,0.60 562.12,0.98 562.32,1.88 561.89,3.30" speed="5.56"/>
   </edge>
   <edge function="internal" id=":1365543017_0">
      <lane disallow="tram rail_urban rail rail_electric ship" id=":1365543017_0_0" index="0" length="4.82" shape="634.95,16.85 636.16,15.99 637.08,15.89 637.71,16.57 638.04,18.02" speed="8.33"/>
   </edge>
   <edge function="internal" id=":1365543039_0">
      <lane disallow="tram rail_urban rail rail_electric ship" id=":1365543039_0_0" index="0" length="0.10" shape="582.84,27.37 582.88,27.44" speed="2.78"/>
   </edge>
   <edge function="internal" id=":1365543039_1">
      <lane disallow="tram rail_urban rail rail_electric ship" id=":1365543039_1_0" index="0" length="2.41" shape="582.84,27.37 582.86,25.88 583.34,25.09" speed="2.78"/>
   </edge>
   <edge function="internal" id=":1365543039_4">
      <lane id=":1365543039_4_0" index="0" length="2.41" shape="583.34,25.09 584.25,25.00 585.62,25.59" speed="2.78"/>
   </edge>
   <edge function="internal" id=":1365543039_2">
      <lane disallow="tram rail_urban rail rail_electric ship" id=":1365543039_2_0" index="0" length="0.10" shape="585.57,25.52 585.62,25.59" speed="2.78"/>
   </edge>
   <edge function="internal" id=":1365543039_3">
      <lane disallow="tram rail_urban rail rail_electric ship" id=":1365543039_3_0" index="0" length="2.41" shape="585.57,25.52 585.62,27.01 585.18,27.82" speed="2.78"/>
   </edge>
   <edge function="internal" id=":1365543039_5">
      <lane id=":1365543039_5_0" index="0" length="2.41" shape="585.18,27.82 584.27,27.97 582.88,27.44" speed="2.78"/>
   </edge>
   <edge function="internal" id=":1365543047_0">
      <lane disallow="tram rail_urban rail rail_electric ship" id=":1365543047_0_0" index="0" length="10.05" shape="544.16,28.17 541.19,28.36 539.14,28.49 537.10,28.62 534.13,28.81" speed="8.33"/>
   </edge>
   <edge function="internal" id=":1365543047_1">
      <lane allow="delivery bicycle pedestrian" id=":1365543047_1_0" index="0" length="5.73" shape="544.16,28.17 540.47,27.89 538.75,26.81" speed="6.95"/>
   </edge>
   <edge function="internal" id=":1365543047_2">
      <lane disallow="tram rail_urban rail rail_electric ship" id=":1365543047_2_0" index="0" length="2.41" shape="544.16,28.17 542.87,27.43 542.40,26.63" speed="8.33"/>
   </edge>
   <edge function="internal" id=":1365543047_9">
      <lane id=":1365543047_9_0" index="0" length="6.91" shape="538.75,26.81 538.25,26.50 537.49,23.99 538.20,20.36" speed="6.95"/>
   </edge>
   <edge function="internal" id=":1365543047_10">
      <lane id=":1365543047_10_0" index="0" length="2.41" shape="542.40,26.63 542.76,25.78 543.95,24.88" speed="8.33"/>
   </edge>
   <edge function="internal" id=":1365543047_3">
      <lane disallow="tram rail_urban rail rail_electric ship" id=":1365543047_3_0" index="0" length="5.57" shape="541.32,21.44 541.01,23.04 541.34,24.14 542.32,24.76 543.95,24.88" speed="6.95"/>
   </edge>
   <edge function="internal" id=":1365543047_4">
      <lane disallow="tram rail_urban rail rail_electric ship" id=":1365543047_4_0" index="0" length="10.92" shape="541.32,21.44 539.96,24.55 538.31,26.82 536.36,28.24 534.13,28.81" speed="6.95"/>
   </edge>
   <edge function="internal" id=":1365543047_5">
      <lane allow="delivery bicycle pedestrian" id=":1365543047_5_0" index="0" length="4.82" shape="541.32,21.44 540.14,22.34 539.22,22.46 538.58,21.80 538.20,20.36" speed="5.56"/>
   </edge>
   <edge function="internal" id=":1365543047_6">
      <lane allow="delivery bicycle pedestrian" id=":1365543047_6_0" index="0" length="7.05" shape="533.92,25.52 535.15,25.14 536.27,24.15 537.29,22.56 538.20,20.36" speed="6.95"/>
   </edge>
   <edge function="internal" id=":1365543047_7">
      <lane disallow="tram rail_urban rail rail_electric ship" id=":1365543047_7_0" index="0" length="10.05" shape="533.92,25.52 536.89,25.33 538.93,25.20 540.98,25.07 543.95,24.88" speed="8.33"/>
   </edge>
   <edge function="internal" id=":1365543047_8">
      <lane disallow="tram rail_urban rail rail_electric ship" id=":1365543047_8_0" index="0" length="2.41" shape="533.92,25.52 535.21,26.26 535.67,27.06" speed="8.33"/>
   </edge>
   <edge function="internal" id=":1365543047_11">