<?xml version="1.0" encoding="utf-8"?><!-- generated on 10/11/17 17:56:57 by SUMO polyconvert Version 0.25.0
<?xml version="1.0" encoding="UTF-8"?>

<configuration xmlns:xsi="http://www.w3.org/2001/XMLSchema-instance" xsi:noNamespaceSchemaLocation="http://sumo.dlr.de/xsd/polyconvertConfiguration.xsd">

    <input>
        <net-file value="M_Milbertsh_urban_800.net.xml"/>
        <osm-files value="M_Milbertsh_urban_800.osm"/>
        <type-file value="osmPolyconvert.typ.xml"/>
    </input>

    <output>
        <output-file value="M_Milbertsh_urban_800.poly.xml"/>
    </output>

    <projection>
        <proj.utm value="true"/>
    </projection>

    <processing>
        <poi-layer-offset value="5"/>
    </processing>

</configuration>
-->
<additional>
   <location convBoundary="-3.67,-22.66,818.24,804.75" netOffset="-691321.48,-5339632.86" origBoundary="11.574143,48.180882,11.584961,48.188096" projParameter="+proj=utm +zone=32 +ellps=WGS84 +datum=WGS84 +units=m +no_defs"/>
   <poly color="red" fill="1" id="108043421" layer="-1.00" shape="177.56,521.86 185.63,521.83 195.57,521.79 195.77,575.43 195.87,601.20 190.35,601.23 181.26,601.26 177.86,601.26 177.76,574.83 177.73,566.45 177.56,521.86" type="building"/>
   <poly color="red" fill="1" id="108043422" layer="-1.00" shape="265.40,611.63 312.11,611.21 312.03,625.53 303.40,625.68 289.62,625.93 274.16,626.21 265.70,626.36 265.40,611.63" type="building"/>
   <poly color="red" fill="1" id="108043424" layer="-1.00" shape="393.43,519.33 394.20,532.00 344.81,532.75 345.54,557.68 344.97,557.84 345.36,567.82 345.98,583.62 346.61,599.34 346.95,608.12 344.80,608.11 334.05,608.11 331.53,549.11 330.74,530.47 330.29,520.17 361.51,519.75 382.76,519.48 393.43,519.33" type="building"/>
   <poly color="red" fill="1" id="108043426" layer="-1.00" shape="266.53,586.07 266.25,572.44 311.37,571.51 311.65,585.14 304.57,585.29 289.26,585.60 273.62,585.93 266.53,586.07" type="building"/>
   <poly color="red" fill="1" id="117755207" layer="-1.00" shape="727.90,58.03 743.58,58.79 744.41,41.91 728.72,41.13 727.90,58.03" type="building"/>
   <poly color="red" fill="1" id="117755209" layer="-1.00" shape="738.45,85.90 747.14,85.76 755.82,85.63 756.36,72.73 738.23,73.21 738.45,85.90" type="building"/>
   <poly color="red" fill="1" id="117755211" layer="-1.00" shape="710.54,48.39 710.47,71.83 704.13,73.54 704.43,68.68 700.34,68.85 700.75,63.85 695.57,63.27 695.92,48.14 710.54,48.39" type="building"/>
   <poly color="red" fill="1" id="117755212" layer="-1.00" shape="800.59,16.90 783.31,15.47 780.58,40.44 784.30,40.57 797.18,41.98 800.59,16.90" type="building"/>
   <poly color="red" fill="1" id="117755213" layer="-1.00" shape="728.72,41.13 744.41,41.91 745.27,24.53 743.38,24.44 731.99,23.88 729.58,23.76 729.19,31.84 728.72,41.13" type="building"/>
   <poly color="red" fill="1" id="117755215" layer="-1.00" shape="788.82,77.25 780.51,76.66 779.99,86.64 793.31,86.83 794.97,65.03 790.07,64.60 788.82,77.25" type="building"/>
   <poly color="red" fill="1" id="117755216" layer="-1.00" shape="710.60,29.90 710.57,39.11 710.54,48.39 695.92,48.14 695.24,30.18 710.60,29.90" type="building"/>
   <poly color="red" fill="1" id="117755217" layer="-1.00" shape="743.65,18.94 732.26,18.38 731.99,23.88 743.38,24.44 743.65,18.94" type="building"/>
   <poly color="red" fill="0" id="117755219" layer="-1.00" shape="783.31,15.47 800.59,16.90" type="building"/>
   <poly color="red" fill="0" id="117755221" layer="-1.00" shape="731.08,5.99 744.25,6.63" type="building"/>
   <poly color="red" fill="1" id="117755222" layer="-1.00" shape="680.43,79.98 684.96,96.44 691.33,94.70 697.72,92.95 693.19,76.49 680.43,79.98" type="building"/>
   <poly color="red" fill="1" id="117755224" layer="-1.00" shape="730.47,18.28 732.26,18.38 743.65,18.94 744.25,6.63 731.08,5.99 730.47,18.28" type="building"/>
   <poly color="red" fill="1" id="117755226" layer="-1.00" shape="716.54,22.21 707.75,21.91 707.76,26.38 700.51,25.73 700.83,20.97 689.91,19.96 690.37,11.13 697.62,9.54 706.36,8.79 706.26,14.05 708.33,14.45 708.56,17.08 716.42,16.14 716.54,22.21" type="building"/>
   <poly color="red" fill="1" id="117755227" layer="-1.00" shape="795.92,53.50 782.99,52.44 782.04,63.97 790.07,64.60 794.97,65.03 795.92,53.50" type="building"/>
   <poly color="red" fill="1" id="117755228" layer="-1.00" shape="774.96,117.74 756.77,115.63 752.56,170.16 770.22,172.33 772.64,144.49 774.96,117.74" type="building"/>
   <poly color="red" fill="1" id="117755230" layer="-1.00" shape="779.99,86.64 780.51,76.66 780.52,73.74 756.36,72.73 755.82,85.63 766.23,86.07 779.99,86.64" type="building"/>
   <poly color="red" fill="1" id="117755232" layer="-1.00" shape="797.18,41.98 784.30,40.57 782.99,52.44 795.92,53.50 797.18,41.98" type="building"/>
   <poly color="184,184,179" fill="1" id="122134916" layer="-1.00" shape="60.33,94.16 60.02,89.23 60.33,94.16" type="parking"/>
   <poly color="red" fill="0" id="122134957" layer="-1.00" shape="22.80,118.15 40.44,116.87 49.92,116.18 48.86,101.74" type="building"/>
   <poly color="red" fill="0" id="122134965" layer="-1.00" shape="26.62,86.33 41.77,85.25 59.18,84.01 66.25,83.51 65.51,73.03" type="building"/>
   <poly color="red" fill="1" id="122134981" layer="-1.00" shape="52.26,167.16 51.72,158.05 51.52,154.60 13.53,169.41 28.74,168.53 43.24,167.68 52.26,167.16" type="building"/>
   <poly color="red" fill="1" id="122134989" layer="-1.00" shape="64.58,158.84 64.92,145.61 65.41,127.18 65.43,120.80 54.29,121.54 53.51,154.46 51.52,154.60 51.72,158.05 56.86,158.16 57.41,158.78 64.58,158.84" type="building"/>
   <poly color="red" fill="1" id="122134995" layer="-1.00" shape="54.29,121.54 54.81,118.08 54.80,115.79 49.92,116.18 48.86,101.74 66.70,100.73 66.12,117.09 65.43,120.80 54.29,121.54" type="building"/>
   <poly color="red" fill="1" id="122135589" layer="-1.00" shape="67.10,52.43 66.75,30.66 56.87,31.85 56.08,53.07 67.10,52.43" type="building"/>
   <poly color="red" fill="1" id="122135590" layer="-1.00" shape="34.56,-7.46 44.27,-8.40 43.06,-20.70 33.35,-19.76 34.56,-7.46" type="building"/>
   <poly color="red" fill="0" id="122135593" layer="-1.00" shape="25.93,52.98 39.52,52.17 49.59,51.56 48.89,40.04" type="building"/>
   <poly color="red" fill="1" id="122135594" layer="-1.00" shape="67.29,15.78 67.60,1.47 67.66,-3.44 55.81,-3.20 53.88,-2.42 53.81,2.10 53.60,15.99 67.29,15.78" type="building"/>
   <poly color="red" fill="1" id="122135598" layer="-1.00" shape="67.66,-3.44 51.80,-22.66 52.69,-11.47 55.02,-11.70 55.81,-3.20 67.66,-3.44" type="building"/>
   <poly color="red" fill="1" id="122135602" layer="-1.00" shape="56.87,31.85 54.13,31.78 54.05,30.11 53.91,27.19 51.94,27.47 51.98,16.00 53.60,15.99 67.29,15.78 66.82,28.88 66.75,30.66 56.87,31.85" type="building"/>
   <poly color="red" fill="1" id="122135604" layer="-1.00" shape="31.44,16.55 33.54,16.24 33.17,4.42 20.27,4.71 20.90,13.06 21.23,17.37 31.44,16.55" type="building"/>
   <poly color="red" fill="1" id="122138540" layer="-1.00" shape="371.27,201.22 370.49,189.85 366.61,190.12 366.43,187.57 358.58,188.10 350.57,188.65 351.54,202.58 367.09,201.51 371.27,201.22" type="building"/>
   <poly color="red" fill="1" id="122138541" layer="-1.00" shape="528.80,83.76 542.93,83.19 542.52,73.12 528.38,73.70 528.80,83.76" type="building"/>
   <poly color="red" fill="1" id="122138542" layer="-1.00" shape="174.43,44.27 187.59,43.78 187.31,36.23 174.15,36.72 174.43,44.27" type="building"/>
   <poly color="red" fill="1" id="122138543" layer="-1.00" shape="539.61,88.76 533.06,89.21 533.71,98.44 540.25,98.00 539.61,88.76" type="building"/>
   <poly color="red" fill="1" id="122138544" layer="-1.00" shape="377.34,168.92 388.62,168.25 388.09,159.45 376.81,160.12 377.34,168.92" type="building"/>
   <poly color="red" fill="1" id="122138545" layer="-1.00" shape="569.49,149.24 577.12,145.54 595.05,136.48 612.51,127.65 622.45,122.62 616.01,109.95 563.38,136.78 569.49,149.24" type="building"/>
   <poly color="red" fill="1" id="122138546" layer="-1.00" shape="466.23,77.03 477.51,76.47 477.06,67.47 465.78,68.02 466.23,77.03" type="building"/>
   <poly color="red" fill="1" id="122138547" layer="-1.00" shape="246.61,107.75 247.71,124.02 261.47,123.11 260.36,106.82 246.61,107.75" type="building"/>
   <poly color="red" fill="1" id="122138549" layer="-1.00" shape="392.48,28.62 391.37,5.67 384.76,5.99 385.87,28.94 392.48,28.62" type="building"/>
   <poly color="red" fill="1" id="122138550" layer="-1.00" shape="470.33,117.22 488.42,111.36 485.43,102.21 467.34,108.06 470.33,117.22" type="building"/>
   <poly color="red" fill="1" id="122138553" layer="-1.00" shape="315.49,204.56 323.99,204.09 342.54,203.08 351.54,202.58 350.57,188.65 314.72,190.41 314.78,191.50 315.37,202.25 315.49,204.56" type="building"/>
   <poly color="red" fill="1" id="122138554" layer="-1.00" shape="165.10,-10.61 174.46,-10.95 164.87,-16.94 165.10,-10.61" type="building"/>
   <poly color="red" fill="1" id="122138555" layer="-1.00" shape="578.78,113.02 590.17,109.10 587.00,99.96 575.61,103.87 578.78,113.02" type="building"/>
   <poly color="red" fill="1" id="122138557" layer="-1.00" shape="409.19,120.51 420.50,119.63 431.97,118.75 431.19,108.82 408.43,110.58 409.19,120.51" type="building"/>
   <poly color="red" fill="1" id="122138558" layer="-1.00" shape="444.71,54.33 457.88,53.37 457.13,43.18 443.96,44.14 444.33,49.22 444.71,54.33" type="building"/>
   <poly color="red" fill="1" id="122138559" layer="-1.00" shape="449.51,11.09 448.61,-3.25 454.79,-3.64 455.69,10.71 449.51,11.09" type="building"/>
   <poly color="red" fill="1" id="122138560" layer="-1.00" shape="541.06,62.92 540.32,50.03 539.64,38.17 528.75,38.80 530.17,63.53 541.06,62.92" type="building"/>
   <poly color="red" fill="1" id="122138561" layer="-1.00" shape="296.20,127.24 295.24,108.42 284.10,108.98 285.05,127.80 296.20,127.24" type="building"/>
   <poly color="red" fill="1" id="122138562" layer="-1.00" shape="552.12,82.15 560.17,79.57 557.60,71.61 549.56,74.19 552.12,82.15" type="building"/>
   <poly color="red" fill="1" id="122138563" layer="-1.00" shape="486.08,143.87 497.40,139.83 492.78,127.02 481.48,131.07 486.08,143.87" type="building"/>
   <poly color="red" fill="1" id="122138565" layer="-1.00" shape="180.49,-15.98 190.28,-16.78 180.49,-15.98" type="building"/>
   <poly color="red" fill="1" id="122138566" layer="-1.00" shape="411.13,172.44 426.92,171.47 426.15,158.95 410.35,159.91 411.13,172.44" type="building"/>
   <poly color="red" fill="1" id="122138568" layer="-1.00" shape="566.47,99.70 580.13,95.11 576.58,84.61 562.92,89.20 566.47,99.70" type="building"/>
   <poly color="red" fill="1" id="122138569" layer="-1.00" shape="505.70,65.31 505.07,55.27 504.13,40.57 493.11,41.27 494.67,66.01 505.70,65.31" type="building"/>
   <poly color="red" fill="1" id="122138570" layer="-1.00" shape="140.31,47.19 143.38,47.01 156.73,46.24 156.56,43.25 156.21,37.50 139.79,38.45 140.20,45.32 140.31,47.19" type="building"/>
   <poly color="red" fill="1" id="122138572" layer="-1.00" shape="498.60,84.54 508.08,83.95 507.55,75.45 498.07,76.03 498.60,84.54" type="building"/>
   <poly color="red" fill="1" id="122138574" layer="-1.00" shape="407.39,101.68 415.00,101.20 425.18,100.55 432.89,100.06 432.10,87.93 406.60,89.56 407.39,101.68" type="building"/>
   <poly color="red" fill="1" id="122138575" layer="-1.00" shape="404.42,82.75 408.73,82.46 422.50,81.56 421.63,68.42 411.90,69.07 405.12,69.51 403.55,69.62 404.42,82.75" type="building"/>
   <poly color="red" fill="1" id="122138577" layer="-1.00" shape="508.53,118.19 512.87,117.66 549.96,113.09 548.81,103.77 507.37,108.87 508.53,118.19" type="building"/>
   <poly color="red" fill="1" id="122138579" layer="-1.00" shape="187.56,111.29 188.77,128.84 176.74,129.67 175.53,112.12 187.56,111.29" type="building"/>
   <poly color="red" fill="1" id="122138580" layer="-1.00" shape="465.59,49.87 465.92,56.46 476.72,55.92 476.39,49.33 465.59,49.87" type="building"/>
   <poly color="red" fill="1" id="122138583" layer="-1.00" shape="557.26,63.46 567.93,62.92 567.54,55.16 556.85,55.71 557.26,63.46" type="building"/>
   <poly color="red" fill="1" id="122138584" layer="-1.00" shape="372.82,189.58 371.54,171.09 377.17,170.70 378.42,188.94 372.82,189.58" type="building"/>
   <poly color="red" fill="1" id="122138586" layer="-1.00" shape="402.25,45.95 413.42,45.21 413.77,50.56 414.19,56.72 411.09,56.93 404.31,57.37 403.02,57.46 402.93,56.10 402.25,45.95" type="building"/>
   <poly color="red" fill="1" id="122138587" layer="-1.00" shape="550.62,44.74 547.87,44.90 548.64,57.62 551.40,57.46 550.62,44.74" type="building"/>
   <poly color="red" fill="1" id="122138588" layer="-1.00" shape="534.27,19.30 549.68,7.39 542.54,-1.81 527.12,10.10 534.27,19.30" type="building"/>
   <poly color="red" fill="1" id="122138592" layer="-1.00" shape="150.09,114.30 151.30,131.85 145.57,132.00 143.11,132.06 139.28,132.17 138.05,115.13 150.09,114.30" type="building"/>
   <poly color="red" fill="1" id="122138593" layer="-1.00" shape="282.91,36.64 299.34,36.26 299.11,26.28 282.67,26.66 282.91,36.64" type="building"/>
   <poly color="red" fill="1" id="122138594" layer="-1.00" shape="410.90,25.06 409.97,10.76 400.17,11.39 401.10,25.69 410.90,25.06" type="building"/>
   <poly color="red" fill="1" id="122138595" layer="-1.00" shape="552.57,46.54 566.11,45.50 565.37,35.98 551.83,37.02 552.57,46.54" type="building"/>
   <poly color="red" fill="1" id="122138598" layer="-1.00" shape="360.59,105.86 367.81,105.49 382.91,104.73 382.34,93.42 360.02,94.54 360.59,105.86" type="building"/>
   <poly color="red" fill="1" id="122138601" layer="-1.00" shape="313.69,34.87 318.61,34.52 335.07,33.37 340.73,32.97 339.84,20.30 312.80,22.20 313.69,34.87" type="building"/>
   <poly color="red" fill="1" id="122138602" layer="-1.00" shape="257.16,185.06 269.02,183.92 266.94,162.18 255.10,163.29 256.11,174.61 257.16,185.06" type="building"/>
   <poly color="red" fill="1" id="122138603" layer="-1.00" shape="134.87,73.77 145.24,73.39 144.95,65.55 134.58,65.92 134.87,73.77" type="building"/>
   <poly color="red" fill="1" id="122138605" layer="-1.00" shape="428.02,23.98 427.27,9.25 417.73,9.73 418.49,24.46 423.21,24.21 428.02,23.98" type="building"/>
   <poly color="red" fill="1" id="122138606" layer="-1.00" shape="543.24,37.88 543.67,45.19 547.14,44.99 546.71,37.69 543.24,37.88" type="building"/>
   <poly color="red" fill="1" id="122138607" layer="-1.00" shape="179.83,76.72 192.55,76.24 192.09,63.83 192.03,62.42 179.30,62.90 179.60,70.76 179.83,76.72" type="building"/>
   <poly color="red" fill="1" id="122138608" layer="-1.00" shape="359.09,31.01 358.19,9.00 349.95,9.34 350.85,31.34 359.09,31.01" type="building"/>
   <poly color="red" fill="1" id="122138609" layer="-1.00" shape="548.93,86.54 551.38,93.83 556.95,91.97 554.50,84.68 548.93,86.54" type="building"/>
   <poly color="red" fill="1" id="122138610" layer="-1.00" shape="293.26,99.52 291.79,82.72 280.71,83.69 282.20,100.49 293.26,99.52" type="building"/>
   <poly color="red" fill="1" id="122138612" layer="-1.00" shape="513.34,86.23 519.19,85.97 519.03,82.43 513.18,82.70 513.34,86.23" type="building"/>
   <poly color="red" fill="1" id="122138614" layer="-1.00" shape="242.58,7.04 242.21,-3.27 232.72,-2.92 233.09,7.39 238.06,7.21 242.58,7.04" type="building"/>
   <poly color="red" fill="1" id="122138615" layer="-1.00" shape="508.76,3.96 509.23,12.66 517.92,12.20 517.45,3.48 508.76,3.96" type="building"/>
   <poly color="red" fill="1" id="122138616" layer="-1.00" shape="228.47,187.43 241.73,186.86 241.23,175.35 240.75,164.23 227.48,164.80 228.47,187.43" type="building"/>
   <poly color="red" fill="1" id="122138617" layer="-1.00" shape="208.79,109.80 210.14,127.07 224.43,125.96 223.89,119.02 223.08,108.69 208.79,109.80" type="building"/>
   <poly color="red" fill="1" id="122138618" layer="-1.00" shape="199.54,42.35 198.78,28.98 195.83,29.13 196.58,42.52 199.54,42.35" type="building"/>
   <poly color="red" fill="1" id="122138619" layer="-1.00" shape="282.01,63.78 293.79,63.15 293.28,53.50 281.49,54.12 282.01,63.78" type="building"/>
   <poly color="red" fill="1" id="122138620" layer="-1.00" shape="424.11,45.38 434.56,44.82 434.90,51.09 435.16,55.68 424.71,56.25 424.43,51.31 424.11,45.38" type="building"/>
   <poly color="red" fill="1" id="122138621" layer="-1.00" shape="169.55,190.66 181.52,190.22 181.00,177.35 180.55,166.89 168.57,167.40 169.55,190.66" type="building"/>
   <poly color="red" fill="1" id="122138623" layer="-1.00" shape="511.41,47.40 525.09,46.96 524.82,38.85 511.15,39.28 511.41,47.40" type="building"/>
   <poly color="red" fill="1" id="122138624" layer="-1.00" shape="194.69,42.84 194.10,35.40 189.74,35.74 190.32,43.18 194.69,42.84" type="building"/>
   <poly color="red" fill="1" id="122138625" layer="-1.00" shape="139.49,169.38 138.64,152.71 150.64,152.10 151.02,159.40 151.49,168.77 139.49,169.38" type="building"/>
   <poly color="red" fill="1" id="122138626" layer="-1.00" shape="331.66,183.50 343.87,182.94 343.43,173.40 342.91,162.25 330.70,162.81 331.66,183.50" type="building"/>
   <poly color="red" fill="1" id="122138627" layer="-1.00" shape="378.62,29.09 377.69,8.24 366.48,8.75 367.42,29.60 378.62,29.09" type="building"/>
   <poly color="red" fill="1" id="122138628" layer="-1.00" shape="199.83,188.80 209.80,188.40 209.29,175.84 208.88,165.39 198.90,165.79 199.83,188.80" type="building"/>
   <poly color="red" fill="1" id="122138629" layer="-1.00" shape="244.97,73.29 259.17,72.14 257.90,56.56 243.69,57.71 244.69,69.88 244.97,73.29" type="building"/>
   <poly color="red" fill="1" id="122138631" layer="-1.00" shape="150.09,114.30 149.42,101.35 148.88,90.80 134.41,92.21 134.44,93.53 134.91,115.22 138.05,115.13 150.09,114.30" type="building"/>
   <poly color="red" fill="1" id="122138632" layer="-1.00" shape="478.52,15.00 478.35,12.23 477.49,-1.11 469.45,-0.60 470.05,8.70 470.49,15.52 478.52,15.00" type="building"/>
   <poly color="red" fill="1" id="122138633" layer="-1.00" shape="313.30,95.24 307.16,95.60 307.85,107.22 311.02,107.03 313.99,106.85 313.30,95.24" type="building"/>
   <poly color="red" fill="1" id="122138635" layer="-1.00" shape="326.74,108.04 329.99,107.85 333.25,107.65 332.75,99.31 326.25,99.70 326.74,108.04" type="building"/>
   <poly color="red" fill="1" id="122138637" layer="-1.00" shape="187.56,111.29 186.13,89.25 171.13,90.09 172.38,112.23 175.53,112.12 187.56,111.29" type="building"/>
   <poly color="red" fill="1" id="122138638" layer="-1.00" shape="152.62,191.00 139.18,191.67 140.34,214.34 153.78,213.67 153.04,199.28 152.62,191.00" type="building"/>
   <poly color="red" fill="1" id="122138639" layer="-1.00" shape="236.20,40.65 251.85,39.26 251.16,31.54 245.38,32.04 245.15,29.57 235.29,30.45 236.20,40.65" type="building"/>
   <poly color="red" fill="1" id="122138640" layer="-1.00" shape="594.30,86.78 604.38,82.64 599.69,71.31 596.07,62.57 595.30,60.70 588.51,63.50 589.66,66.27 586.36,67.62 594.30,86.78" type="building"/>
   <poly color="red" fill="1" id="122138641" layer="-1.00" shape="212.94,41.90 223.72,41.42 223.17,29.58 215.47,29.94 215.67,34.42 212.60,34.56 212.94,41.90" type="building"/>
   <poly color="red" fill="1" id="122138642" layer="-1.00" shape="517.32,146.70 521.31,156.13 526.37,168.07 547.35,158.91 561.47,152.75 569.49,149.24 563.38,136.78 531.98,150.20 528.51,142.01 517.32,146.70" type="building"/>
   <poly color="red" fill="1" id="122138643" layer="-1.00" shape="481.98,182.40 501.41,176.50 509.86,173.81 500.57,152.54 490.28,156.37 494.53,166.92 478.27,171.68 481.98,182.40" type="building"/>
   <poly color="red" fill="1" id="122138644" layer="-1.00" shape="203.51,30.87 204.03,42.32 212.94,41.90 212.60,34.56 211.91,34.59 211.72,30.50 203.51,30.87" type="building"/>
   <poly color="red" fill="1" id="122138646" layer="-1.00" shape="478.52,15.00 478.91,21.98 482.34,21.68 492.81,20.78 500.24,20.14 498.92,5.93 491.45,6.62 491.75,11.44 478.35,12.23 478.52,15.00" type="building"/>
   <poly color="red" fill="1" id="122138647" layer="-1.00" shape="137.35,14.41 136.99,9.63 138.42,9.52 137.31,-6.11 151.77,-7.12 153.33,13.20 143.45,13.95 137.35,14.41" type="building"/>
   <poly color="red" fill="1" id="122138648" layer="-1.00" shape="449.51,11.09 435.21,12.19 436.07,23.83 443.20,23.28 450.38,22.72 449.51,11.09" type="building"/>
   <poly color="red" fill="1" id="122138649" layer="-1.00" shape="358.58,188.10 358.45,176.92 357.55,160.89 366.98,160.54 368.08,176.18 368.41,179.86 367.50,179.90 366.42,179.96 366.43,187.57 358.58,188.10" type="building"/>
   <poly color="red" fill="1" id="122138650" layer="-1.00" shape="475.88,94.62 481.83,93.94 480.73,84.37 469.90,85.61 470.91,94.43 469.88,94.55 470.67,101.32 476.57,100.65 475.88,94.62" type="building"/>
   <poly color="red" fill="1" id="122138651" layer="-1.00" shape="514.46,136.97 525.11,132.97 535.75,128.95 533.25,122.35 525.63,125.22 524.98,123.50 518.38,125.99 517.77,124.39 510.70,127.06 514.46,136.97" type="building"/>
   <poly color="red" fill="1" id="122138652" layer="-1.00" shape="144.96,36.25 143.45,13.95 137.35,14.41 137.55,17.99 135.54,18.12 136.49,32.15 138.50,32.02 138.81,36.66 144.96,36.25" type="building"/>
   <poly color="red" fill="1" id="122138653" layer="-1.00" shape="507.31,98.65 514.03,98.03 513.41,91.38 513.19,89.11 506.48,89.73 507.31,98.65" type="building"/>
   <poly color="red" fill="1" id="122138654" layer="-1.00" shape="430.81,193.74 429.25,182.94 421.13,184.10 412.53,185.31 413.35,191.03 414.15,196.59 430.81,193.74" type="building"/>
   <poly color="red" fill="1" id="122138655" layer="-1.00" shape="151.77,-7.12 153.33,-7.23 152.78,-15.02 137.34,-15.87 136.62,-15.82 137.31,-6.11 151.77,-7.12" type="building"/>
   <poly color="red" fill="1" id="122143661" layer="-1.00" shape="465.94,652.67 473.19,652.69 490.71,652.73 497.41,652.75 497.44,643.87 465.97,643.80 465.94,652.67" type="building"/>
   <poly color="207,245,201" fill="1" id="122143695" layer="-2.00" shape="522.39,521.09 525.20,521.03 525.52,534.12 536.00,533.82 536.92,537.70 542.59,537.66 543.52,533.59 553.63,533.47 553.61,513.74 522.00,514.42 522.39,521.09" type="leisure"/>
   <poly color="79,230,125" fill="1" id="122143695#1" layer="-2.00" shape="522.39,521.09 525.20,521.03 525.52,534.12 536.00,533.82 536.92,537.70 542.59,537.66 543.52,533.59 553.63,533.47 553.61,513.74 522.00,514.42 522.39,521.09" type="sport"/>
   <poly color="red" fill="1" id="122143696" layer="-1.00" shape="570.42,552.63 561.46,552.84 561.68,562.34 572.79,562.07 637.66,560.57 637.44,551.09 628.06,551.29 619.14,551.51 602.02,551.90 594.36,552.07 577.37,552.47 570.42,552.63" type="building"/>
   <poly color="207,245,201" fill="1" id="122143697" layer="-2.00" shape="518.80,616.58 506.49,618.55 499.92,567.73 495.61,523.19 496.46,512.37 502.45,508.65 555.85,507.39 556.24,533.29 557.43,562.25 561.68,562.34 572.79,562.07 573.53,596.11 518.47,597.00 518.80,616.58" type="leisure"/>
   <poly color="red" fill="1" id="122143698" layer="-1.00" shape="516.79,409.25 516.75,419.81 516.72,425.29 517.46,425.24 521.15,425.31 530.32,425.39 530.30,408.17 527.82,408.21 527.66,402.43 509.82,384.50 472.62,383.01 472.15,390.81 471.88,395.41 471.81,396.43 479.22,396.59 495.12,396.94 502.65,397.11 504.77,398.93 515.89,408.48 516.79,409.25" type="building"/>
   <poly color="red" fill="1" id="122143699" layer="-1.00" shape="560.77,540.73 570.14,540.51 570.42,552.63 577.37,552.47 577.10,540.69 594.08,540.30 594.36,552.07 602.02,551.90 601.74,540.08 618.86,539.69 619.14,551.51 628.06,551.29 627.77,539.19 636.54,538.98 636.31,529.63 560.55,531.38 560.77,540.73" type="building"/>
   <poly color="red" fill="1" id="122143700" layer="-1.00" shape="756.95,453.01 756.44,459.29 755.05,476.39 754.98,477.13 736.54,475.80 731.94,475.47 731.88,473.94 723.14,473.58 715.68,473.27 712.11,476.86 709.78,479.21 709.39,488.93 711.61,489.01 711.54,490.66 711.49,492.08 709.27,491.99 708.86,502.04 713.78,507.43 735.04,508.45 734.67,519.35 721.62,518.85 705.77,518.24 702.87,515.26 698.24,510.51 699.59,465.86 701.17,463.36 714.65,463.82 714.74,462.35 741.32,464.01 742.41,451.71 756.95,453.01" type="building"/>
   <poly color="red" fill="1" id="122143701" layer="-1.00" shape="326.22,383.23 338.93,382.89 338.35,372.02 325.78,372.57 326.22,383.23" type="building"/>
   <poly color="red" fill="1" id="122143702" layer="-1.00" shape="689.21,403.43 697.59,404.38 713.31,406.17 722.17,407.18 723.63,393.04 690.33,389.19 689.21,403.43" type="building"/>
   <poly color="red" fill="1" id="122143703" layer="-1.00" shape="601.64,612.93 613.73,612.72 613.45,596.93 601.36,597.15 601.64,612.93" type="building"/>
   <poly color="red" fill="1" id="122143704" layer="-1.00" shape="395.57,626.27 395.28,615.37 394.72,594.59 394.17,574.28 393.91,564.48 385.84,564.63 386.64,602.24 385.48,602.26 384.42,602.28 384.93,626.49 395.57,626.27" type="building"/>
   <poly color="red" fill="1" id="122143705" layer="-1.00" shape="577.84,393.17 582.78,393.73 588.02,394.32 605.50,396.30 620.11,397.95 627.78,398.82 628.01,396.80 628.59,391.65 629.27,385.70 579.33,380.05 577.84,393.17" type="building"/>
   <poly color="red" fill="1" id="122143706" layer="-1.00" shape="592.13,490.35 601.29,490.16 620.27,489.74 639.33,489.32 649.31,489.10 649.09,479.46 591.91,480.69 592.13,490.35" type="building"/>
   <poly color="red" fill="1" id="122143708" layer="-1.00" shape="567.19,442.45 580.68,443.31 581.00,438.22 581.26,434.29 582.17,420.21 583.19,404.32 583.62,397.64 582.30,397.55 577.56,397.26 570.13,396.77 567.19,442.45" type="building"/>
   <poly color="207,245,201" fill="1" id="122143710" layer="-2.00" shape="507.51,583.45 512.53,582.87 505.09,518.24 500.06,518.82 507.51,583.45" type="leisure"/>
   <poly color="79,230,125" fill="1" id="122143710#1" layer="-2.00" shape="507.51,583.45 512.53,582.87 505.09,518.24 500.06,518.82 507.51,583.45" type="sport"/>
   <poly color="red" fill="1" id="122143711" layer="-1.00" shape="499.34,491.99 509.37,491.81 528.58,491.45 549.36,491.06 560.55,490.86 560.36,480.78 499.14,481.92 499.34,491.99" type="building"/>
   <poly color="red" fill="1" id="122143713" layer="-1.00" shape="519.44,430.22 517.46,425.24 521.15,425.31 523.10,430.18 519.44,430.22" type="building"/>
   <poly color="red" fill="1" id="122143714" layer="-1.00" shape="735.35,501.96 755.10,503.35 756.10,489.14 736.35,487.75 735.35,501.96" type="building"/>
   <poly color="red" fill="1" id="122143715" layer="-1.00" shape="428.26,493.02 436.65,492.89 452.90,492.65 469.41,492.40 477.90,492.27 477.76,482.64 428.13,483.39 428.26,493.02" type="building"/>
   <poly color="red" fill="1" id="122143716" layer="-1.00" shape="731.75,683.60 719.53,682.54 718.54,694.00 716.77,714.64 715.29,730.97 714.05,745.91 713.40,753.33 725.62,754.39 731.75,683.60" type="building"/>
   <poly color="red" fill="1" id="122143717" layer="-1.00" shape="248.63,325.94 271.40,324.67 270.80,313.94 248.03,315.21 248.63,325.94" type="building"/>
   <poly color="red" fill="1" id="122143718" layer="-1.00" shape="485.66,624.88 485.56,616.07 485.35,598.00 485.14,579.91 484.94,562.29 484.82,551.89 475.19,552.00 476.03,624.98 485.66,624.88" type="building"/>
   <poly color="red" fill="1" id="122143719" layer="-1.00" shape="587.53,450.87 594.84,450.71 611.02,450.34 618.60,450.16 618.27,436.02 587.21,436.72 587.25,438.55 587.37,443.60 587.53,450.87" type="building"/>
   <poly color="237,199,199" fill="1" id="122143720" layer="-1.00" shape="618.66,617.58 654.99,617.04 654.78,602.87 618.46,603.41 618.66,617.58" type="amenity"/>
   <poly color="red" fill="1" id="122143720#1" layer="-1.00" shape="618.66,617.58 654.99,617.04 654.78,602.87 618.46,603.41 618.66,617.58" type="building"/>
   <poly color="red" fill="1" id="122143721" layer="-1.00" shape="446.46,528.45 456.17,528.41 473.39,528.33 481.17,528.29 481.14,522.91 482.10,522.91 482.07,517.61 446.40,517.79 446.46,528.45" type="building"/>
   <poly color="red" fill="1" id="122143722" layer="-1.00" shape="649.45,446.72 649.55,439.80 646.89,439.76 647.00,431.90 647.24,416.03 647.48,399.07 647.59,391.55 634.96,391.37 634.95,392.06 634.87,397.00 634.24,440.46 632.28,440.43 632.20,446.47 649.45,446.72" type="building"/>
   <poly color="red" fill="1" id="122143723" layer="-1.00" shape="567.03,610.75 573.07,610.65 573.02,607.09 566.97,607.19 567.03,610.75" type="building"/>
   <poly color="red" fill="1" id="122143724" layer="-1.00" shape="572.87,649.80 564.09,649.88 546.20,650.05 528.60,650.21 518.60,650.31 518.75,640.08 573.31,639.99 572.87,649.80" type="building"/>
   <poly color="red" fill="1" id="122143725" layer="-1.00" shape="685.38,559.93 685.94,508.57 675.41,508.45 675.33,516.27 675.19,529.05 675.05,542.01 674.91,554.87 674.85,559.82 685.38,559.93" type="building"/>
   <poly color="207,245,201" fill="1" id="122143726" layer="-2.00" shape="513.83,521.59 522.39,521.09 522.00,514.42 513.45,514.91 513.83,521.59" type="leisure"/>
   <poly color="79,230,125" fill="1" id="122143726#1" layer="-2.00" shape="513.83,521.59 522.39,521.09 522.00,514.42 513.45,514.91 513.83,521.59" type="sport"/>
   <poly color="red" fill="1" id="122143727" layer="-1.00" shape="756.95,453.01 757.80,443.99 759.70,424.09 760.57,414.86 744.98,413.43 742.41,451.71 756.95,453.01" type="building"/>
   <poly color="red" fill="1" id="122143728" layer="-1.00" shape="461.89,459.99 477.31,460.21 477.40,454.38 477.46,449.63 462.04,449.42 461.89,459.99" type="building"/>
   <poly color="red" fill="1" id="122143729" layer="-1.00" shape="466.23,395.21 471.88,395.41 472.15,390.81 466.17,390.84 466.23,395.21" type="building"/>
   <poly color="red" fill="1" id="122143730" layer="-1.00" shape="680.49,493.88 680.48,471.78 680.47,461.03 670.41,461.04 670.43,488.82 670.43,493.88 680.49,493.88" type="building"/>
   <poly color="red" fill="1" id="122143731" layer="-1.00" shape="367.36,435.41 367.35,432.40 367.34,430.49 372.49,430.43 372.55,432.04 372.67,435.25 367.36,435.41" type="building"/>