<?xml version="1.0" encoding="utf-8"?><!-- generated on 10/11/17 17:57:03 by SUMO polyconvert Version 0.25.0
<?xml version="1.0" encoding="UTF-8"?>

<configuration xmlns:xsi="http://www.w3.org/2001/XMLSchema-instance" xsi:noNamespaceSchemaLocation="http://sumo.dlr.de/xsd/polyconvertConfiguration.xsd">

    <input>
        <net-file value="M_Moosfeld_industrial_800.net.xml"/>
        <osm-files value="M_Moosfeld_industrial_800.osm"/>
        <type-file value="osmPolyconvert.typ.xml"/>
    </input>

    <output>
        <output-file value="M_Moosfeld_industrial_800.poly.xml"/>
    </output>

    <projection>
        <proj.utm value="true"/>
    </projection>

    <processing>
        <poi-layer-offset value="5"/>
    </processing>

</configuration>
-->
<additional>
   <location convBoundary="-9.89,-12.32,809.22,803.55" netOffset="-697918.98,-5334312.81" origBoundary="11.660227,48.131149,11.670995,48.138342" projParameter="+proj=utm +zone=32 +ellps=WGS84 +datum=WGS84 +units=m +no_defs"/>
   <poly color="235,235,227" fill="0" id="116462434" layer="-3.00" shape="56.55,-5.50 127.22,136.59 204.42,102.62 225.07,146.11 798.81,47.12" type="residential"/>
   <poly color="red" fill="0" id="116738690" layer="-1.00" shape="375.00,8.16 387.38,2.91" type="building"/>
   <poly color="red" fill="1" id="116738691" layer="-1.00" shape="114.64,39.10 78.08,-8.94 80.54,-4.05 83.73,2.26 86.84,8.51 89.78,14.49 92.31,19.64 94.93,25.02 97.48,30.35 99.79,35.24 102.40,40.69 104.08,44.19 114.64,39.10" type="building"/>
   <poly color="red" fill="1" id="116738701" layer="-1.00" shape="283.69,-3.07" type="building"/>
   <poly color="red" fill="1" id="116738721" layer="-1.00" shape="361.78,13.47 356.40,0.73 346.93,4.71 349.62,11.07 352.32,17.45 361.78,13.47" type="building"/>
   <poly color="red" fill="1" id="116738730" layer="-1.00" shape="136.08,64.61 130.21,51.96 105.38,63.40 111.24,76.05 136.08,64.61" type="building"/>
   <poly color="red" fill="1" id="116748560" layer="-1.00" shape="300.31,101.46 311.45,96.63 303.90,79.32 292.75,84.14 300.31,101.46" type="building"/>
   <poly color="red" fill="1" id="116748567" layer="-1.00" shape="407.46,32.87 413.62,45.14 423.06,40.44 416.89,28.17 407.46,32.87" type="building"/>
   <poly color="red" fill="1" id="116748578" layer="-1.00" shape="350.73,62.83 336.62,69.41 341.57,79.97 355.43,73.50 350.73,62.83" type="building"/>
   <poly color="red" fill="1" id="116748591" layer="-1.00" shape="323.38,90.01 335.41,84.99 326.86,64.62 314.83,69.64 323.38,90.01" type="building"/>
   <poly color="red" fill="1" id="116748615" layer="-1.00" shape="429.67,35.86 437.31,32.36 432.30,21.52 424.67,25.02 429.67,35.86" type="building"/>
   <poly color="red" fill="1" id="116748620" layer="-1.00" shape="368.93,52.62 374.65,65.31 378.35,63.65 383.16,61.50 386.76,59.89 381.04,47.20 368.93,52.62" type="building"/>
   <poly color="red" fill="1" id="116748633" layer="-1.00" shape="393.96,56.64 406.48,50.85 400.82,38.67 388.29,44.46 393.96,56.64" type="building"/>
   <poly color="red" fill="1" id="116789122" layer="-1.00" shape="439.40,20.20 463.34,9.03 433.34,7.32 439.40,20.20" type="building"/>
   <poly color="red" fill="1" id="116977733" layer="-1.00" shape="78.43,333.64 51.73,304.86 57.13,296.55 88.63,319.97 78.43,333.64" type="building"/>
   <poly color="red" fill="1" id="116977749" layer="-1.00" shape="15.48,425.10 35.75,399.55 15.48,425.10" type="building"/>
   <poly color="red" fill="0" id="116977751" layer="-1.00" shape="-4.92,441.15 -0.54,445.18 9.82,432.74" type="building"/>
   <poly color="207,245,201" fill="0" id="117125957" layer="-2.00" shape="798.81,47.12 781.32,57.66 768.31,64.00 758.45,157.71" type="tourism"/>
   <poly color="red" fill="1" id="117859609" layer="-1.00" shape="10.91,1.37" type="building"/>
   <poly color="red" fill="0" id="117859610" layer="-1.00" shape="16.82,-6.83 27.80,-12.32" type="building"/>
   <poly color="red" fill="1" id="117859614" layer="-1.00" shape="35.89,-11.10" type="building"/>
   <poly color="red" fill="1" id="117859623" layer="-1.00" shape="66.09,84.92 77.80,79.05 72.68,68.90 60.96,74.77 66.09,84.92" type="building"/>
   <poly color="red" fill="1" id="117859630" layer="-1.00" shape="24.35,46.82 38.85,39.80 28.65,18.79 21.91,22.04 13.68,26.01 24.35,46.82" type="building"/>
   <poly color="237,199,199" fill="1" id="161110867" layer="-1.00" shape="603.11,118.26 631.09,106.01 635.70,117.32 607.50,129.29 603.11,118.26" type="amenity"/>
   <poly color="red" fill="1" id="161110867#1" layer="-1.00" shape="603.11,118.26 631.09,106.01 635.70,117.32 607.50,129.29 603.11,118.26" type="building"/>
   <poly color="red" fill="1" id="161110868" layer="-1.00" shape="589.63,137.91 640.53,115.89 644.75,125.97 647.93,133.55 620.13,145.74 624.88,156.94 629.74,168.38 607.47,177.69 597.05,154.49 589.63,137.91" type="building"/>
   <poly color="red" fill="1" id="161235125" layer="-1.00" shape="485.63,179.50 503.89,171.86 496.13,153.40 486.95,157.23 491.06,166.99 481.96,170.79 485.63,179.50" type="building"/>
   <poly color="red" fill="0" id="165514660" layer="-1.00" shape="-3.74,542.35 -7.45,539.58 -0.18,529.87" type="building"/>
   <poly color="red" fill="1" id="165514663" layer="-1.00" shape="26.15,603.53 44.88,578.53 -3.74,542.35 26.15,603.53" type="building"/>
   <poly color="red" fill="0" id="165514666" layer="-1.00" shape="-9.89,646.05 -0.88,634.06 14.17,645.33 28.61,626.15 -7.05,599.48" type="building"/>
   <poly color="red" fill="1" id="165514667" layer="-1.00" shape="55.43,455.55 73.48,462.97 82.05,458.37 72.92,481.79 91.91,489.79 86.28,504.88 50.15,470.66 48.33,466.64 48.83,463.47 55.43,455.55" type="building"/>
   <poly color="red" fill="1" id="173168542" layer="-1.00" shape="378.76,461.09 383.10,490.85 417.78,485.83 413.45,456.08 378.76,461.09" type="building"/>
   <poly color="red" fill="1" id="173168548" layer="-1.00" shape="489.57,403.97 475.35,426.70 489.49,435.49 490.75,433.47 499.47,419.54 503.71,412.78 489.57,403.97" type="building"/>
   <poly color="red" fill="1" id="173168569" layer="-1.00" shape="367.36,442.96 337.21,446.18 343.83,496.27 373.98,492.41 367.36,442.96" type="building"/>
   <poly color="red" fill="1" id="173168582" layer="-1.00" shape="496.86,387.19 492.66,390.75 515.92,418.03 520.12,414.46 496.86,387.19" type="building"/>
   <poly color="red" fill="1" id="184281880" layer="-1.00" shape="724.17,221.88 721.35,209.74 718.39,197.00 730.18,194.27 730.96,197.62 760.81,190.73 765.23,209.73 735.23,216.65 735.82,219.19 724.17,221.88" type="building"/>
   <poly color="red" fill="1" id="184281881" layer="-1.00" shape="713.99,197.81 710.74,184.15 706.32,165.59 722.73,161.71 729.06,189.20 729.97,193.11 730.18,194.27 718.39,197.00 713.99,197.81" type="building"/>
   <poly color="red" fill="1" id="184281882" layer="-1.00" shape="730.63,152.90 751.14,148.16 759.99,186.17 729.97,193.11 729.06,189.20 738.57,187.01 730.63,152.90" type="building"/>
   <poly color="red" fill="1" id="190877354" layer="-1.00" shape="290.20,359.48 322.32,371.02 324.09,366.14 321.03,365.05 323.60,357.92 307.13,351.99 316.84,325.17 323.96,327.73 322.45,331.91 335.81,336.71 337.35,332.46 348.63,336.51 343.98,349.35 351.14,351.92 352.05,349.41 357.86,351.50 350.65,371.44 351.29,374.10 365.33,380.17 368.91,378.71 372.87,366.35 374.56,366.88 382.29,347.72 365.50,340.88 369.90,329.61 373.98,331.17 379.72,314.31 316.22,288.95 290.20,359.48" type="building"/>
   <poly color="209,209,204" fill="0" id="19539731" layer="-3.00" shape="456.61,778.77 465.47,789.84 580.55,776.12 566.44,590.47 558.13,576.26 543.25,535.01 516.15,504.18 493.97,484.58 485.56,476.70 454.29,458.57 360.39,419.86 311.71,401.83 148.56,340.64 109.36,321.39 73.98,298.72 36.26,262.17 3.51,216.68" type="industrial"/>
   <poly color="red" fill="1" id="243983919" layer="-1.00" shape="165.66,6.15 171.38,3.62 165.66,6.15" type="building"/>
   <poly color="red" fill="1" id="243983926" layer="-1.00" shape="189.86,52.87 195.75,50.25 190.38,38.21 184.48,40.83 189.86,52.87" type="building"/>
   <poly color="red" fill="1" id="243983931" layer="-1.00" shape="183.67,4.37 188.74,1.95 183.67,4.37" type="building"/>
   <poly color="red" fill="1" id="243983933" layer="-1.00" shape="188.74,1.95 193.81,-0.49 188.74,1.95" type="building"/>
   <poly color="red" fill="1" id="243983937" layer="-1.00" shape="202.02,47.50 208.05,44.74 202.53,32.78 196.49,35.54 202.02,47.50" type="building"/>
   <poly color="red" fill="1" id="243983939" layer="-1.00" shape="193.81,-0.49 198.88,-2.92 193.81,-0.49" type="building"/>
   <poly color="red" fill="1" id="243983940" layer="-1.00" shape="198.88,-2.92 203.94,-5.36 198.88,-2.92" type="building"/>
   <poly color="red" fill="1" id="243983943" layer="-1.00" shape="208.05,44.74 214.07,41.97 208.55,30.02 202.53,32.78 208.05,44.74" type="building"/>
   <poly color="red" fill="1" id="243983946" layer="-1.00" shape="203.94,-5.36" type="building"/>
   <poly color="red" fill="1" id="243983950" layer="-1.00" shape="214.07,41.97 220.11,39.21 214.58,27.24 208.55,30.02 214.07,41.97" type="building"/>
   <poly color="red" fill="1" id="243983954" layer="-1.00" shape="220.11,39.21 226.13,36.43 220.61,24.48 214.58,27.24 220.11,39.21" type="building"/>
   <poly color="red" fill="1" id="243983960" layer="-1.00" shape="226.13,36.43 232.04,33.72 227.08,22.68 226.64,21.72 220.61,24.48 226.13,36.43" type="building"/>
   <poly color="red" fill="1" id="243983965" layer="-1.00" shape="243.75,29.37 249.10,26.94 243.17,13.95 237.81,16.38 243.75,29.37" type="building"/>
   <poly color="red" fill="1" id="243983970" layer="-1.00" shape="249.10,26.94 254.45,24.51 248.52,11.52 243.17,13.95 249.10,26.94" type="building"/>
   <poly color="red" fill="1" id="243983975" layer="-1.00" shape="254.45,24.51 259.81,22.08 253.88,9.09 248.52,11.52 254.45,24.51" type="building"/>
   <poly color="red" fill="1" id="243983985" layer="-1.00" shape="259.81,22.08 265.16,19.65 259.23,6.66 253.88,9.09 259.81,22.08" type="building"/>
   <poly color="red" fill="1" id="243983994" layer="-1.00" shape="166.27,63.33 167.55,62.77 172.17,60.71 166.79,48.68 160.89,51.30 163.47,57.05 166.27,63.33" type="building"/>
   <poly color="red" fill="1" id="243984000" layer="-1.00" shape="265.16,19.65 270.51,17.22 264.58,4.23 259.23,6.66 265.16,19.65" type="building"/>
   <poly color="red" fill="1" id="243984018" layer="-1.00" shape="270.51,17.22 275.87,14.79 269.94,1.80 264.58,4.23 270.51,17.22" type="building"/>
   <poly color="red" fill="1" id="243984044" layer="-1.00" shape="127.57,20.20 133.82,17.38 127.48,3.25 120.96,6.12 127.57,20.20" type="building"/>
   <poly color="red" fill="1" id="243984073" layer="-1.00" shape="133.82,17.38 139.76,14.77 133.66,0.38 127.48,3.25 133.82,17.38" type="building"/>
   <poly color="red" fill="1" id="243984076" layer="-1.00" shape="139.76,14.77 145.79,12.06 139.74,-2.32 133.66,0.38 139.76,14.77" type="building"/>
   <poly color="red" fill="1" id="243984084" layer="-1.00" shape="172.17,60.71 178.07,58.10 172.69,46.06 166.79,48.68 172.17,60.71" type="building"/>
   <poly color="red" fill="1" id="243984093" layer="-1.00" shape="42.80,7.83 49.47,21.75 59.91,16.77 53.23,2.86 42.80,7.83" type="building"/>
   <poly color="red" fill="1" id="243984095" layer="-1.00" shape="56.40,33.96 60.34,41.47 69.94,36.48 66.01,28.96 56.40,33.96" type="building"/>
   <poly color="red" fill="1" id="243984097" layer="-1.00" shape="60.34,41.47 64.27,48.99 73.87,43.99 69.94,36.48 60.34,41.47" type="building"/>
   <poly color="red" fill="1" id="243984099" layer="-1.00" shape="355.43,73.50 369.75,66.81 364.80,56.26 350.73,62.83 355.43,73.50" type="building"/>
   <poly color="red" fill="1" id="243984111" layer="-1.00" shape="178.07,58.10 183.96,55.48 178.58,43.44 172.69,46.06 178.07,58.10" type="building"/>
   <poly color="red" fill="1" id="243984119" layer="-1.00" shape="154.22,11.23 159.93,8.69 153.57,-5.54 147.86,-3.00 154.22,11.23" type="building"/>
   <poly color="red" fill="1" id="243984125" layer="-1.00" shape="159.93,8.69 165.66,6.15 153.57,-5.54 159.93,8.69" type="building"/>
   <poly color="red" fill="1" id="243984128" layer="-1.00" shape="183.96,55.48 189.86,52.87 184.48,40.83 178.58,43.44 183.96,55.48" type="building"/>
   <poly color="red" fill="1" id="24833294" layer="-1.00" shape="677.74,716.40 703.62,698.58 725.83,684.09 707.13,656.04 723.18,645.01 685.81,589.77 637.76,622.22 660.32,655.41 657.44,657.35 660.28,661.54 658.02,663.08 662.23,669.28 659.38,671.20 662.17,675.31 653.91,680.88 677.74,716.40" type="building"/>
   <poly color="184,184,179" fill="1" id="24833298" layer="-1.00" shape="619.79,547.36 635.08,580.47 619.80,587.42 616.00,578.67 613.87,573.81 609.29,563.39 605.09,565.48 598.81,564.55 594.00,560.75 591.81,556.33 591.90,550.17 594.56,544.81 598.76,541.72 604.37,541.27 609.67,542.29 613.36,544.75 618.06,542.79 619.79,547.36" type="parking"/>
   <poly color="red" fill="1" id="24833298#1" layer="-1.00" shape="619.79,547.36 635.08,580.47 619.80,587.42 616.00,578.67 613.87,573.81 609.29,563.39 605.09,565.48 598.81,564.55 594.00,560.75 591.81,556.33 591.90,550.17 594.56,544.81 598.76,541.72 604.37,541.27 609.67,542.29 613.36,544.75 618.06,542.79 619.79,547.36" type="building"/>
   <poly color="184,184,179" fill="1" id="24833301" layer="-1.00" shape="635.89,696.15 621.40,641.48 632.45,639.45 646.39,693.13 635.89,696.15" type="parking"/>
   <poly color="red" fill="1" id="24833307" layer="-1.00" shape="83.69,521.46 91.66,509.98 86.28,504.88 50.15,470.66 48.33,466.64 48.83,463.47 55.43,455.55 59.53,451.38 58.05,450.87 60.56,445.08 57.75,435.20 46.65,443.69 39.60,452.56 35.05,459.81 34.69,469.63 37.69,476.43 83.69,521.46" type="building"/>
   <poly color="red" fill="1" id="24833309" layer="-1.00" shape="72.92,481.79 91.91,489.79 131.47,505.61 187.66,365.22 130.72,342.93 115.49,380.51 113.02,379.65 82.05,458.37 72.92,481.79" type="building"/>
   <poly color="237,199,255" fill="1" id="24833309#1" layer="-1.00" shape="72.92,481.79 91.91,489.79 131.47,505.61 187.66,365.22 130.72,342.93 115.49,380.51 113.02,379.65 82.05,458.37 72.92,481.79" type="shop"/>
   <poly color="red" fill="1" id="24833310" layer="-1.00" shape="250.66,485.35 259.96,484.15 260.74,490.10 283.40,487.15 281.52,472.76 249.55,476.92 250.66,485.35" type="building"/>
   <poly color="237,199,255" fill="1" id="24833310#1" layer="-1.00" shape="250.66,485.35 259.96,484.15 260.74,490.10 283.40,487.15 281.52,472.76 249.55,476.92 250.66,485.35" type="shop"/>
   <poly color="red" fill="1" id="24833313" layer="-1.00" shape="249.08,512.96 251.00,528.49 296.02,522.99 294.11,507.45 249.08,512.96" type="building"/>
   <poly color="red" fill="1" id="24833314" layer="-1.00" shape="265.34,623.19 287.67,620.62 277.38,531.66 255.04,534.23 258.19,561.44 262.59,599.45 265.34,623.19" type="building"/>
   <poly color="red" fill="0" id="24833315" layer="-1.00" shape="26.24,377.36 68.45,343.19 12.85,274.92" type="building"/>
   <poly color="red" fill="0" id="24833317" layer="-1.00" shape="11.09,241.78 5.52,232.92" type="building"/>
   <poly color="red" fill="1" id="253144813" layer="-1.00" shape="46.90,36.40 52.33,33.82 45.69,19.92 40.26,22.49 46.90,36.40" type="building"/>
   <poly color="red" fill="1" id="253144814" layer="-1.00" shape="38.39,67.47 28.78,72.11 30.94,76.57 40.56,71.94 38.39,67.47" type="building"/>
   <poly color="red" fill="1" id="253144816" layer="-1.00" shape="24.35,46.82 31.66,61.91 41.92,56.97 34.59,41.87 24.35,46.82" type="building"/>
   <poly color="red" fill="1" id="25692397" layer="-1.00" shape="161.12,128.57 168.26,143.78 174.82,157.76 188.74,151.28 179.26,131.45 176.27,132.33 171.52,123.56 161.12,128.57" type="building"/>
   <poly color="red" fill="1" id="25692398" layer="-1.00" shape="200.86,146.89 216.73,139.39 202.51,109.49 186.64,116.98 200.86,146.89" type="building"/>
   <poly color="red" fill="1" id="25692399" layer="-1.00" shape="223.74,135.31 241.06,127.65 234.65,113.27 217.34,120.94 223.74,135.31" type="building"/>
   <poly color="red" fill="1" id="25692400" layer="-1.00" shape="250.67,128.22 268.48,120.62 262.18,105.96 244.37,113.56 250.67,128.22" type="building"/>
   <poly color="red" fill="1" id="25692401" layer="-1.00" shape="276.55,113.49 291.00,107.21 282.44,87.64 267.99,93.92 276.55,113.49" type="building"/>
   <poly color="red" fill="1" id="25692402" layer="-1.00" shape="308.12,198.07 353.87,177.99 329.16,122.06 283.41,142.15 308.12,198.07" type="building"/>
   <poly color="red" fill="1" id="25692403" layer="-1.00" shape="245.31,234.14 295.23,209.65 278.85,174.45 285.04,171.66 271.84,144.36 214.56,171.66 227.85,198.68 216.15,203.61 220.71,212.83 232.18,207.47 245.31,234.14" type="building"/>
   <poly color="red" fill="1" id="25692404" layer="-1.00" shape="371.98,165.25 385.18,159.82 382.99,154.55 391.45,151.07 392.97,154.74 404.88,149.85 383.36,97.78 349.79,111.58 371.98,165.25" type="building"/>
   <poly color="237,199,199" fill="1" id="25692405" layer="-1.00" shape="431.28,224.52 448.97,215.99 432.94,182.92 415.24,191.44 431.28,224.52" type="amenity"/>
   <poly color="red" fill="1" id="25692405#1" layer="-1.00" shape="431.28,224.52 448.97,215.99 432.94,182.92 415.24,191.44 431.28,224.52" type="building"/>
   <poly color="red" fill="1" id="25692406" layer="-1.00" shape="128.16,286.17 194.69,253.69 174.57,212.63 130.09,234.24 134.48,242.53 112.98,252.74 128.16,286.17" type="building"/>
   <poly color="red" fill="1" id="25692407" layer="-1.00" shape="677.60,49.55 713.83,41.64 715.88,51.86 695.20,60.31 700.56,76.54 730.27,60.55 677.60,49.55" type="building"/>
   <poly color="red" fill="1" id="25692408" layer="-1.00" shape="695.35,120.98 742.64,102.39 734.85,82.71 687.56,101.30 692.17,112.96 695.35,120.98" type="building"/>
   <poly color="red" fill="1" id="25692409" layer="-1.00" shape="700.07,156.59 750.07,143.84 744.45,121.96 694.44,134.72 697.37,146.10 700.07,156.59" type="building"/>
   <poly color="red" fill="1" id="25954987" layer="-1.00" shape="70.95,185.56 124.25,160.49 119.60,150.72 123.93,148.76 140.72,141.14 152.01,166.32 78.95,201.25 70.95,185.56" type="building"/>
   <poly color="207,245,201" fill="1" id="25954987#1" layer="-2.00" shape="70.95,185.56 124.25,160.49 119.60,150.72 123.93,148.76 140.72,141.14 152.01,166.32 78.95,201.25 70.95,185.56" type="tourism"/>
   <poly color="red" fill="1" id="27052076" layer="-1.00" shape="343.31,783.59 560.40,753.32 550.25,681.05 544.31,681.88 540.29,653.26 547.75,652.22 544.26,627.39 536.91,628.41 535.86,620.94 496.14,626.47 499.60,651.13 506.91,650.11 508.59,662.05 468.87,667.60 459.79,602.98 417.80,608.83 405.80,610.50 350.21,618.25 356.56,663.40 327.00,667.52 343.31,783.59" type="building"/>
   <poly color="red" fill="1" id="27100272" layer="-1.00" shape="111.59,643.48 106.63,597.91 213.34,585.81 218.48,629.90 111.59,643.48" type="building"/>
   <poly color="red" fill="1" id="27100273" layer="-1.00" shape="99.05,662.79 206.18,650.10 206.49,652.45 218.97,651.22 224.22,691.76 104.01,706.24 99.05,662.79" type="building"/>
   <poly color="red" fill="1" id="27100274" layer="-1.00" shape="183.47,399.20 201.30,406.29 202.50,406.76 198.82,415.97 216.92,423.15 216.29,424.73 226.17,428.66 219.30,445.87 172.29,427.21 183.47,399.20" type="building"/>
   <poly color="red" fill="1" id="27100275" layer="-1.00" shape="137.96,520.31 168.32,441.44 216.06,459.71 195.58,512.91 201.61,515.22 188.41,549.50 154.65,536.57 157.96,527.97 137.96,520.31" type="building"/>
   <poly color="red" fill="1" id="27100307" layer="-1.00" shape="285.54,713.51 281.49,683.27 292.84,657.30 313.53,654.86 319.97,710.02 285.54,713.51" type="building"/>
   <poly color="red" fill="1" id="27100308" layer="-1.00" shape="267.19,775.41 261.10,729.43 267.84,728.38 266.43,718.79 269.04,718.88 268.48,713.30 273.10,712.72 275.13,714.89 276.66,724.60 290.25,722.97 289.97,720.11 303.46,718.65 305.14,730.04 307.41,729.25 310.29,760.54 308.19,760.34 309.37,770.26 267.19,775.41" type="building"/>
   <poly color="red" fill="1" id="27100309" layer="-1.00" shape="309.15,719.10 322.24,717.08 325.02,749.78 312.21,750.80 309.15,719.10" type="building"/>
   <poly color="red" fill="1" id="281465042" layer="-1.00" shape="575.07,192.63 564.44,168.55 597.05,154.49 607.47,177.69 575.07,192.63" type="building"/>
   <poly color="red" fill="1" id="288461630" layer="-1.00" shape="132.57,102.47 127.07,104.88 131.56,115.04 134.48,113.75 137.07,112.62 132.57,102.47" type="building"/>
   <poly color="red" fill="1" id="288461631" layer="-1.00" shape="138.07,100.04 132.57,102.47 137.07,112.62 139.83,111.40 142.57,110.19 138.07,100.04" type="building"/>
   <poly color="red" fill="1" id="288461632" layer="-1.00" shape="143.57,97.63 138.07,100.04 142.57,110.19 145.33,108.97 148.06,107.78 143.57,97.63" type="building"/>
   <poly color="red" fill="1" id="288461633" layer="-1.00" shape="149.07,95.21 143.57,97.63 148.06,107.78 151.63,106.21 153.56,105.35 149.07,95.21" type="building"/>
   <poly color="red" fill="1" id="288461634" layer="-1.00" shape="154.57,92.78 149.07,95.21 153.56,105.35 156.43,104.10 159.06,102.93 154.57,92.78" type="building"/>
   <poly color="red" fill="1" id="288461635" layer="-1.00" shape="160.07,90.37 154.57,92.78 159.06,102.93 160.73,102.20 164.56,100.52 160.07,90.37" type="building"/>
   <poly color="red" fill="1" id="288461636" layer="-1.00" shape="165.57,87.94 160.07,90.37 164.56,100.52 167.16,99.34 170.06,98.09 165.57,87.94" type="building"/>
   <poly color="red" fill="1" id="288461637" layer="-1.00" shape="177.85,81.64 172.25,84.25 177.77,96.01 181.76,94.15 183.37,93.39 177.85,81.64" type="building"/>
   <poly color="red" fill="1" id="288461638" layer="-1.00" shape="183.45,79.03 177.85,81.64 183.37,93.39 186.02,92.16 188.97,90.78 183.45,79.03" type="building"/>
   <poly color="red" fill="1" id="288461639" layer="-1.00" shape="189.04,76.42 183.45,79.03 188.97,90.78 191.01,89.83 194.57,88.17 189.04,76.42" type="building"/>
   <poly color="red" fill="1" id="288461640" layer="-1.00" shape="194.65,73.80 189.04,76.42 194.57,88.17 196.90,87.08 200.17,85.56 194.65,73.80" type="building"/>
   <poly color="red" fill="1" id="288461641" layer="-1.00" shape="200.24,71.19 194.65,73.80 200.17,85.56 201.63,84.88 205.76,82.95 200.24,71.19" type="building"/>
   <poly color="red" fill="1" id="288461642" layer="-1.00" shape="205.84,68.58 200.24,71.19 205.76,82.95 207.21,82.37 211.36,80.33 205.84,68.58" type="building"/>
   <poly color="red" fill="1" id="288461644" layer="-1.00" shape="217.23,61.02 211.18,63.70 216.91,76.53 221.57,74.46 222.96,73.84 217.23,61.02" type="building"/>
   <poly color="red" fill="1" id="288461645" layer="-1.00" shape="223.27,58.33 217.23,61.02 222.96,73.84 226.64,72.21 229.00,71.16 223.27,58.33" type="building"/>
   <poly color="red" fill="1" id="288461646" layer="-1.00" shape="229.32,55.65 223.27,58.33 229.00,71.16 231.85,69.90 235.05,68.49 229.32,55.65" type="building"/>
   <poly color="red" fill="1" id="288461647" layer="-1.00" shape="235.36,52.96 229.32,55.65 235.05,68.49 238.00,67.18 241.09,65.80 235.36,52.96" type="building"/>
   <poly color="red" fill="1" id="288461648" layer="-1.00" shape="241.40,50.29 235.36,52.96 241.09,65.80 243.23,64.85 247.13,63.12 241.40,50.29" type="building"/>
   <poly color="red" fill="1" id="288461649" layer="-1.00" shape="247.44,47.61 241.40,50.29 247.13,63.12 248.32,62.59 253.17,60.44 247.44,47.61" type="building"/>
   <poly color="red" fill="1" id="288461650" layer="-1.00" shape="259.71,43.16 253.78,45.70 259.35,58.58 263.08,56.97 265.28,56.03 259.71,43.16" type="building"/>
   <poly color="red" fill="1" id="288461651" layer="-1.00" shape="265.55,40.66 259.71,43.16 265.28,56.03 268.95,54.45 271.26,53.38 265.55,40.66" type="building"/>
   <poly color="red" fill="1" id="288461652" layer="-1.00" shape="271.44,38.02 265.55,40.66 271.26,53.38 274.33,52.12 277.17,50.82 271.44,38.02" type="building"/>
   <poly color="red" fill="1" id="288461653" layer="-1.00" shape="277.51,35.32 271.44,38.02 277.17,50.82 280.35,49.40 283.24,48.11 282.43,46.31 277.51,35.32" type="building"/>
   <poly color="red" fill="1" id="288461656" layer="-1.00" shape="282.46,31.03 276.75,33.54 277.51,35.32 282.43,46.31 285.04,45.16 288.11,43.82 282.46,31.03" type="building"/>
   <poly color="red" fill="1" id="288461657" layer="-1.00" shape="288.38,28.43 282.46,31.03 288.11,43.82 291.12,42.58 294.03,41.31 288.38,28.43" type="building"/>
   <poly color="red" fill="1" id="288461658" layer="-1.00" shape="315.77,21.81 304.67,26.65 309.22,37.01 314.81,34.58 320.31,32.17 315.77,21.81" type="building"/>
   <poly color="red" fill="1" id="288461659" layer="-1.00" shape="326.86,16.98 315.77,21.81 320.31,32.17 326.03,29.69 331.40,27.35 326.86,16.98" type="building"/>
   <poly color="red" fill="1" id="288461660" layer="-1.00" shape="356.40,0.73 361.78,13.47 366.62,11.48 370.91,9.65 356.40,0.73" type="building"/>
   <poly color="red" fill="1" id="290245774" layer="-1.00" shape="712.70,399.20 730.33,395.52 734.09,413.39 731.40,413.96 732.25,417.96 720.99,420.31 720.29,416.98 716.60,417.75 712.70,399.20" type="building"/>
   <poly color="237,199,199" fill="1" id="290245775" layer="-1.00" shape="619.33,398.56 670.23,376.07 690.52,421.67 682.02,425.44 629.96,448.45 626.10,439.77 635.76,435.49 619.33,398.56" type="amenity"/>
   <poly color="red" fill="1" id="290245775#1" layer="-1.00" shape="619.33,398.56 670.23,376.07 690.52,421.67 682.02,425.44 629.96,448.45 626.10,439.77 635.76,435.49 619.33,398.56" type="building"/>
   <poly color="red" fill="1" id="290245786" layer="-1.00" shape="714.69,324.31 717.67,339.28 719.12,346.57 696.20,351.35 691.38,329.27 709.36,325.45 714.69,324.31" type="building"/>
   <poly color="red" fill="1" id="290245788" layer="-1.00" shape="683.38,288.37 686.13,302.99 703.71,299.09 708.61,298.00 705.52,283.75 683.38,288.37" type="building"/>
   <poly color="red" fill="1" id="290245790" layer="-1.00" shape="664.78,165.55 666.41,169.69 670.37,179.75 632.17,194.67 626.58,180.47 664.78,165.55" type="building"/>
   <poly color="red" fill="1" id="290245796" layer="-1.00" shape="596.79,480.75 582.93,486.78 591.61,506.63 598.44,503.61 605.29,500.56 596.79,480.75" type="building"/>
   <poly color="red" fill="1" id="290245798" layer="-1.00" shape="731.04,241.96 735.16,259.62 775.35,250.30 771.23,232.64 748.06,238.01 731.04,241.96" type="building"/>
   <poly color="red" fill="1" id="290246803" layer="-1.00" shape="632.05,319.87 637.48,317.44 657.41,361.76 651.97,364.19 634.36,325.01 632.05,319.87" type="building"/>
   <poly color="red" fill="1" id="290246804" layer="-1.00" shape="781.84,473.93 786.47,481.82 792.05,488.55 788.82,462.47 778.99,462.78 779.83,466.42 781.84,473.93" type="building"/>
   <poly color="red" fill="1" id="290246805" layer="-1.00" shape="744.96,297.86 757.80,294.99 778.32,290.41 781.83,306.03 748.47,313.47 744.96,297.86" type="building"/>
   <poly color="red" fill="1" id="290246807" layer="-1.00" shape="657.06,261.53 654.18,252.90 649.60,239.24 659.79,235.85 667.24,258.13 657.06,261.53" type="building"/>
   <poly color="red" fill="1" id="290246809" layer="-1.00" shape="754.15,337.93 753.06,333.32 750.72,323.39 790.10,314.14 793.54,328.69 754.15,337.93" type="building"/>
   <poly color="red" fill="1" id="290246811" layer="-1.00" shape="756.28,347.98 796.43,338.87 774.62,379.96 773.69,375.87 769.29,376.87 763.20,378.25 758.27,356.70 756.28,347.98" type="building"/>
   <poly color="red" fill="1" id="290246813" layer="-1.00" shape="683.75,251.36 676.46,229.49 688.28,225.58 695.57,247.46 683.75,251.36" type="building"/>
   <poly color="red" fill="1" id="290246815" layer="-1.00" shape="650.33,573.16 664.44,567.10 650.16,533.64 666.55,526.19 680.37,559.78 695.18,553.69 679.37,520.35 695.49,513.02 710.80,547.29 724.39,541.00 709.03,506.86 725.21,499.50 740.29,533.11 754.47,526.81 738.99,493.20 754.04,485.99 769.39,520.16 783.83,513.74 768.05,480.19 781.84,473.93 779.83,466.42 774.18,469.10 773.34,465.35 754.11,473.57 725.15,486.18 694.62,499.47 665.00,512.36 635.46,525.22 614.26,534.46 618.06,542.79 619.79,547.36 636.47,539.88 650.33,573.16" type="building"/>
   <poly color="red" fill="1" id="290246818" layer="-1.00" shape="738.57,270.58 750.80,267.66 751.64,271.13 776.76,265.12 780.21,279.43 751.85,286.22 751.26,283.76 747.00,284.78 742.27,285.91 738.57,270.58" type="building"/>
   <poly color="red" fill="1" id="290246821" layer="-1.00" shape="695.56,392.16 682.91,363.30 697.42,356.94 704.26,389.08 695.56,392.16" type="building"/>
   <poly color="red" fill="1" id="290246823" layer="-1.00" shape="705.35,391.90 700.21,367.62 720.73,363.36 725.26,388.22 711.36,390.79 705.35,391.90" type="building"/>
   <poly color="red" fill="1" id="290354396" layer="-1.00" shape="440.02,253.99 451.19,248.60 465.96,277.80 454.78,283.59 440.02,253.99" type="building"/>
   <poly color="red" fill="1" id="290354397" layer="-1.00" shape="473.93,282.48 466.93,268.67 497.81,253.11 504.82,266.91 473.93,282.48" type="building"/>
   <poly color="red" fill="1" id="290429436" layer="-1.00" shape="808.73,47.60" type="building"/>
   <poly color="red" fill="1" id="290429438" layer="-1.00" shape="804.95,20.59 809.22,27.31 804.95,20.59" type="building"/>
   <poly color="red" fill="1" id="290429455" layer="-1.00" shape="793.82,14.50" type="building"/>
   <poly color="red" fill="1" id="290432227" layer="-1.00" shape="44.53,615.66 61.31,593.70 75.96,604.82 59.19,626.80 44.53,615.66" type="building"/>
   <poly color="red" fill="1" id="290432699" layer="-1.00" shape="6.47,697.59 21.69,679.20 40.54,694.39 24.91,713.17 6.47,697.59" type="building"/>
   <poly color="red" fill="1" id="290432700" layer="-1.00" shape="24.45,714.94 79.44,759.66 89.22,742.28 79.13,733.96 82.25,730.08 49.62,703.26 45.86,708.12 36.53,700.62 24.45,714.94" type="building"/>