<?xml version="1.0" encoding="utf-8"?><!-- generated on 10/11/17 17:57:00 by SUMO netconvert Version 0.25.0
<?xml version="1.0" encoding="UTF-8"?>

<configuration xmlns:xsi="http://www.w3.org/2001/XMLSchema-instance" xsi:noNamespaceSchemaLocation="http://sumo.dlr.de/xsd/netconvertConfiguration.xsd">

    <input>
        <type-files value="osmNetconvert.typ.xml"/>
        <osm-files value="M_Moosfeld_industrial_800.osm"/>
    </input>

    <output>
        <output-file value="M_Moosfeld_industrial_800.net.xml"/>
    </output>

    <projection>
        <proj.utm value="true"/>
    </projection>

    <edge_removal>
        <remove-edges.by-type value="highway.track,highway.unsurfaced,highway.raceway,highway.bridleway,highway.path,highway.footway,highway.pedestrian,highway.cycleway,highway.step,highway.steps,highway.stairs,highway.bus_guideway,highway.ford,railway.rail,railway.tram,railway.light_rail,railway.subway,railway.preserved,railway.narrow_gauge,railway.monorail,railway.funicular"/>
    </edge_removal>

</configuration>
-->
<net version="0.25">
   <location convBoundary="0.00,0.00,797.20,802.25" netOffset="-697918.98,-5334312.81" origBoundary="11.660287,48.131154,11.670995,48.138342" projParameter="+proj=utm +zone=32 +ellps=WGS84 +datum=WGS84 +units=m +no_defs"/>
   <type allow="pedestrian" id="highway.bridleway" numLanes="1" oneway="1" priority="1" speed="2.78" width="2.00"/>
   <type allow="bus" id="highway.bus_guideway" numLanes="1" oneway="1" priority="1" speed="8.33"/>
   <type allow="bicycle" id="highway.cycleway" numLanes="1" oneway="0" priority="1" speed="5.56" width="1.00"/>
   <type allow="pedestrian" id="highway.footway" numLanes="1" oneway="1" priority="1" speed="8.33" width="2.00"/>
   <type allow="army" id="highway.ford" numLanes="1" oneway="0" priority="1" speed="2.78"/>
   <type disallow="tram rail_urban rail rail_electric ship" id="highway.living_street" numLanes="1" oneway="0" priority="3" speed="2.78"/>
   <type allow="private emergency authority army vip passenger hov taxi bus coach delivery truck trailer motorcycle evehicle custom1 custom2" id="highway.motorway" numLanes="2" oneway="1" priority="13" speed="44.44"/>
   <type allow="private emergency authority army vip passenger hov taxi bus coach delivery truck trailer motorcycle evehicle custom1 custom2" id="highway.motorway_link" numLanes="1" oneway="1" priority="12" speed="22.22"/>
   <type allow="bicycle pedestrian" id="highway.path" numLanes="1" oneway="1" priority="1" speed="2.78" width="2.00"/>
   <type allow="pedestrian" id="highway.pedestrian" numLanes="1" oneway="1" priority="1" speed="8.33" width="2.00"/>
   <type disallow="tram rail_urban rail rail_electric ship" id="highway.primary" numLanes="2" oneway="0" priority="9" speed="27.78"/>
   <type disallow="tram rail_urban rail rail_electric ship" id="highway.primary_link" numLanes="1" oneway="0" priority="8" speed="22.22"/>
   <type allow="vip" id="highway.raceway" numLanes="2" oneway="0" priority="14" speed="83.33"/>
   <type disallow="tram rail_urban rail rail_electric ship" id="highway.residential" numLanes="1" oneway="0" priority="4" speed="13.89"/>
   <type disallow="tram rail_urban rail rail_electric ship" id="highway.secondary" numLanes="2" oneway="0" priority="7" speed="27.78"/>
   <type disallow="tram rail_urban rail rail_electric ship" id="highway.secondary_link" numLanes="1" oneway="0" priority="6" speed="22.22"/>
   <type allow="delivery bicycle pedestrian" id="highway.service" numLanes="1" oneway="0" priority="2" speed="5.56"/>
   <type disallow="tram rail_urban rail rail_electric ship" id="highway.services" numLanes="1" oneway="0" priority="1" speed="8.33"/>
   <type allow="pedestrian" id="highway.stairs" numLanes="1" oneway="1" priority="1" speed="1.39" width="2.00"/>
   <type allow="pedestrian" id="highway.step" numLanes="1" oneway="1" priority="1" speed="1.39" width="2.00"/>
   <type allow="pedestrian" id="highway.steps" numLanes="1" oneway="1" priority="1" speed="1.39" width="2.00"/>
   <type disallow="tram rail_urban rail rail_electric ship" id="highway.tertiary" numLanes="1" oneway="0" priority="6" speed="22.22"/>
   <type disallow="tram rail_urban rail rail_electric ship" id="highway.tertiary_link" numLanes="1" oneway="0" priority="5" speed="22.22"/>
   <type disallow="tram rail_urban rail rail_electric ship" id="highway.track" numLanes="1" oneway="0" priority="1" speed="5.56"/>
   <type disallow="tram rail_urban rail rail_electric bicycle pedestrian ship" id="highway.trunk" numLanes="2" oneway="0" priority="11" speed="27.78"/>
   <type disallow="tram rail_urban rail rail_electric bicycle pedestrian ship" id="highway.trunk_link" numLanes="1" oneway="0" priority="10" speed="22.22"/>
   <type disallow="tram rail_urban rail rail_electric ship" id="highway.unclassified" numLanes="1" oneway="0" priority="5" speed="13.89"/>
   <type disallow="tram rail_urban rail rail_electric ship" id="highway.unsurfaced" numLanes="1" oneway="0" priority="1" speed="8.33"/>
   <type allow="rail_urban" id="railway.light_rail" numLanes="1" oneway="1" priority="15" speed="27.78"/>
   <type allow="rail" id="railway.preserved" numLanes="1" oneway="1" priority="15" speed="27.78"/>
   <type allow="rail rail_electric" id="railway.rail" numLanes="1" oneway="1" priority="15" speed="83.33"/>
   <type allow="rail_urban" id="railway.subway" numLanes="1" oneway="1" priority="15" speed="27.78"/>
   <type allow="tram" id="railway.tram" numLanes="1" oneway="1" priority="15" speed="13.89"/>
   <edge function="internal" id=":1149099916_0">
      <lane allow="delivery bicycle pedestrian" id=":1149099916_0_0" index="0" length="6.00" shape="129.24,562.43 127.96,562.29 126.73,562.70 125.54,563.65 124.39,565.15" speed="9.73"/>
   </edge>
   <edge function="internal" id=":1149099916_1">
      <lane disallow="tram rail_urban rail rail_electric ship" id=":1149099916_1_0" index="0" length="9.56" shape="129.24,562.43 120.24,559.22" speed="13.89"/>
   </edge>
   <edge function="internal" id=":1149099916_2">
      <lane disallow="tram rail_urban rail rail_electric ship" id=":1149099916_2_0" index="0" length="2.53" shape="129.24,562.43 128.31,561.27 128.16,560.36 128.25,560.27" speed="13.89"/>
   </edge>
   <edge function="internal" id=":1149099916_9">
      <lane id=":1149099916_9_0" index="0" length="2.29" shape="128.25,560.27 128.81,559.69 130.23,559.28" speed="13.89"/>
   </edge>
   <edge function="internal" id=":1149099916_3">
      <lane disallow="tram rail_urban rail rail_electric ship" id=":1149099916_3_0" index="0" length="9.35" shape="121.43,556.14 130.23,559.28" speed="13.89"/>
   </edge>
   <edge function="internal" id=":1149099916_4">
      <lane allow="delivery bicycle pedestrian" id=":1149099916_4_0" index="0" length="5.21" shape="121.43,556.14 124.23,557.72 125.38,559.35" speed="9.73"/>
   </edge>
   <edge function="internal" id=":1149099916_5">
      <lane disallow="tram rail_urban rail rail_electric ship" id=":1149099916_5_0" index="0" length="2.41" shape="121.43,556.14 122.28,557.36 122.37,558.28" speed="13.89"/>
   </edge>
   <edge function="internal" id=":1149099916_10">
      <lane id=":1149099916_10_0" index="0" length="6.17" shape="125.38,559.35 125.65,559.74 125.71,562.22 124.39,565.15" speed="9.73"/>
   </edge>
   <edge function="internal" id=":1149099916_11">
      <lane id=":1149099916_11_0" index="0" length="2.41" shape="122.37,558.28 121.69,558.90 120.24,559.22" speed="13.89"/>
   </edge>
   <edge function="internal" id=":1149099916_6">
      <lane disallow="tram rail_urban rail rail_electric ship" id=":1149099916_6_0" index="0" length="5.25" shape="121.60,563.38 122.21,562.03 122.19,560.88 121.53,559.95 120.24,559.22" speed="9.73"/>
   </edge>
   <edge function="internal" id=":1149099916_7">
      <lane disallow="tram rail_urban rail rail_electric ship" id=":1149099916_7_0" index="0" length="10.35" shape="121.60,563.38 123.50,560.99 125.57,559.51 127.81,558.94 130.23,559.28" speed="9.73"/>
   </edge>
   <edge function="internal" id=":1149099916_8">
      <lane allow="delivery bicycle pedestrian" id=":1149099916_8_0" index="0" length="4.82" shape="121.60,563.38 122.96,562.78 123.88,562.87 124.36,563.66 124.39,565.15" speed="5.56"/>
   </edge>
   <edge function="internal" id=":1319394847_0">
      <lane allow="delivery bicycle pedestrian" id=":1319394847_0_0" index="0" length="4.82" shape="505.87,99.49 505.55,100.94 504.94,101.63 504.02,101.55 502.80,100.70" speed="5.56"/>
   </edge>
   <edge function="internal" id=":1319394855_0">
      <lane allow="delivery bicycle pedestrian" id=":1319394855_0_0" index="0" length="4.82" shape="464.53,4.10 464.84,2.64 465.45,1.96 466.37,2.03 467.59,2.88" speed="5.56"/>
   </edge>
   <edge function="internal" id=":1416366441_0">
      <lane disallow="tram rail_urban rail rail_electric ship" id=":1416366441_0_0" index="0" length="8.07" shape="501.28,349.56 494.42,353.81" speed="13.89"/>
   </edge>
   <edge function="internal" id=":1416366441_1">
      <lane allow="delivery bicycle pedestrian" id=":1416366441_1_0" index="0" length="4.24" shape="501.28,349.56 498.62,350.32 497.16,350.16" speed="9.72"/>
   </edge>
   <edge function="internal" id=":1416366441_2">
      <lane disallow="tram rail_urban rail rail_electric ship" id=":1416366441_2_0" index="0" length="2.21" shape="501.28,349.56 499.82,349.31 499.26,348.85" speed="13.89"/>
   </edge>
   <edge function="internal" id=":1416366441_9">
      <lane id=":1416366441_9_0" index="0" length="5.91" shape="497.16,350.16 496.33,350.06 494.41,348.79 492.86,346.49" speed="9.72"/>
   </edge>
   <edge function="internal" id=":1416366441_10">
      <lane id=":1416366441_10_0" index="0" length="2.61" shape="499.26,348.85 499.10,348.73 499.15,347.80 499.94,346.55" speed="13.89"/>
   </edge>
   <edge function="internal" id=":1416366441_3">
      <lane disallow="tram rail_urban rail rail_electric ship" id=":1416366441_3_0" index="0" length="4.96" shape="495.82,345.05 496.58,346.17 497.52,346.79 498.64,346.92 499.94,346.55" speed="9.72"/>
   </edge>
   <edge function="internal" id=":1416366441_4">
      <lane disallow="tram rail_urban rail rail_electric ship" id=":1416366441_4_0" index="0" length="9.63" shape="495.82,345.05 496.71,347.59 496.77,349.89 496.00,351.97 494.42,353.81" speed="9.72"/>
   </edge>
   <edge function="internal" id=":1416366441_5">
      <lane allow="delivery bicycle pedestrian" id=":1416366441_5_0" index="0" length="4.82" shape="495.82,345.05 495.62,346.52 495.06,347.25 494.14,347.24 492.86,346.49" speed="5.56"/>
   </edge>
   <edge function="internal" id=":1416366441_6">
      <lane allow="delivery bicycle pedestrian" id=":1416366441_6_0" index="0" length="5.26" shape="492.26,351.31 493.08,350.34 493.45,349.21 493.37,347.93 492.86,346.49" speed="9.72"/>
   </edge>
   <edge function="internal" id=":1416366441_7">
      <lane disallow="tram rail_urban rail rail_electric ship" id=":1416366441_7_0" index="0" length="9.03" shape="492.26,351.31 499.94,346.55" speed="13.89"/>
   </edge>
   <edge function="internal" id=":1416366441_8">
      <lane disallow="tram rail_urban rail rail_electric ship" id=":1416366441_8_0" index="0" length="2.71" shape="492.26,351.31 493.74,351.12 494.59,351.48 494.67,351.77" speed="13.89"/>
   </edge>
   <edge function="internal" id=":1416366441_11">
      <lane id=":1416366441_11_0" index="0" length="2.11" shape="494.67,351.77 494.82,352.37 494.42,353.81" speed="13.89"/>
   </edge>
   <edge function="internal" id=":14666950_0">
      <lane disallow="tram rail_urban rail rail_electric ship" id=":14666950_0_0" index="0" length="7.70" shape="2.90,469.32 1.69,467.61 1.29,465.90 1.72,464.21 2.97,462.52" speed="13.89"/>
   </edge>
   <edge function="internal" id=":14666950_1">
      <lane disallow="tram rail_urban rail rail_electric ship" id=":14666950_1_0" index="0" length="2.81" shape="2.90,469.32 2.65,467.86 2.96,466.99 3.35,466.88" speed="13.89"/>
   </edge>
   <edge function="internal" id=":14666950_4">
      <lane id=":14666950_4_0" index="0" length="2.01" shape="3.35,466.88 3.85,466.72 5.30,467.06" speed="13.89"/>
   </edge>
   <edge function="internal" id=":14666950_2">
      <lane disallow="tram rail_urban rail rail_electric ship" id=":14666950_2_0" index="0" length="2.51" shape="5.32,464.84 4.91,465.39 4.77,465.94 4.90,466.50 5.30,467.06" speed="13.89"/>
   </edge>
   <edge function="internal" id=":14666950_3">
      <lane disallow="tram rail_urban rail rail_electric ship" id=":14666950_3_0" index="0" length="2.19" shape="5.32,464.84 3.86,465.14 3.19,464.92" speed="13.89"/>
   </edge>
   <edge function="internal" id=":14666950_5">
      <lane id=":14666950_5_0" index="0" length="2.63" shape="3.19,464.92 2.99,464.85 2.69,463.98 2.97,462.52" speed="13.89"/>
   </edge>
   <edge function="internal" id=":14666954_0">
      <lane disallow="tram rail_urban rail rail_electric ship" id=":14666954_0_0" index="0" length="3.26" shape="117.81,319.28 115.80,316.71" speed="13.89"/>
   </edge>
   <edge function="internal" id=":14666954_1">
      <lane disallow="tram rail_urban rail rail_electric ship" id=":14666954_1_0" index="0" length="9.03" shape="117.81,319.28 109.72,314.75" speed="13.89"/>
      <lane disallow="tram rail_urban rail rail_electric ship" id=":14666954_1_1" index="1" length="9.03" shape="119.21,316.30 111.54,312.00" speed="13.89"/>
   </edge>
   <edge function="internal" id=":14666954_3">
      <lane disallow="tram rail_urban rail rail_electric ship" id=":14666954_3_0" index="0" length="2.58" shape="119.21,316.30 118.45,315.02 118.43,314.10 118.56,313.99" speed="13.89"/>
   </edge>
   <edge function="internal" id=":14666954_11">
      <lane id=":14666954_11_0" index="0" length="2.24" shape="118.56,313.99 119.15,313.53 120.62,313.31" speed="13.89"/>
   </edge>
   <edge function="internal" id=":14666954_4">
      <lane disallow="tram rail_urban rail rail_electric ship" id=":14666954_4_0" index="0" length="8.10" shape="115.17,306.48 122.03,310.33" speed="13.89"/>
      <lane disallow="tram rail_urban rail rail_electric ship" id=":14666954_4_1" index="1" length="8.10" shape="113.35,309.24 120.62,313.31" speed="13.89"/>
   </edge>
   <edge function="internal" id=":14666954_6">
      <lane disallow="tram rail_urban rail rail_electric ship" id=":14666954_6_0" index="0" length="4.83" shape="113.35,309.24 115.31,310.89 116.37,312.69 116.38,312.88" speed="13.89"/>
   </edge>
   <edge function="internal" id=":14666954_7">
      <lane disallow="tram rail_urban rail rail_electric ship" id=":14666954_7_0" index="0" length="2.41" shape="113.35,309.24 113.93,310.61 113.82,311.53" speed="13.89"/>
   </edge>
   <edge function="internal" id=":14666954_12">
      <lane id=":14666954_12_0" index="0" length="3.97" shape="116.38,312.88 116.53,314.63 115.80,316.71" speed="13.89"/>
   </edge>
   <edge function="internal" id=":14666954_13">
      <lane id=":14666954_13_0" index="0" length="2.41" shape="113.82,311.53 113.03,311.99 111.54,312.00" speed="13.89"/>
   </edge>
   <edge function="internal" id=":14666954_8">
      <lane disallow="tram rail_urban rail rail_electric ship" id=":14666954_8_0" index="0" length="4.16" shape="111.22,318.18 111.50,317.29 111.34,316.43 110.75,315.58 109.72,314.75" speed="13.89"/>
   </edge>
   <edge function="internal" id=":14666954_9">
      <lane disallow="tram rail_urban rail rail_electric ship" id=":14666954_9_0" index="0" length="11.82" shape="111.22,318.18 113.33,315.11 115.60,313.27 118.03,312.67 120.62,313.31" speed="13.89"/>
   </edge>
   <edge function="internal" id=":14666954_10">
      <lane disallow="tram rail_urban rail rail_electric ship" id=":14666954_10_0" index="0" length="7.01" shape="111.22,318.18 111.82,316.10 112.78,315.16 114.10,315.36 115.80,316.71" speed="13.89"/>
   </edge>
   <edge function="internal" id=":1581230771_0">
      <lane allow="private emergency authority army vip passenger hov taxi bus coach delivery truck trailer motorcycle evehicle custom1 custom2" id=":1581230771_0_0" index="0" length="5.69" shape="697.23,771.28 702.01,768.19" speed="33.33"/>
   </edge>
   <edge function="internal" id=":1581230771_1">
      <lane allow="private emergency authority army vip passenger hov taxi bus coach delivery truck trailer motorcycle evehicle custom1 custom2" id=":1581230771_1_0" index="0" length="6.43" shape="698.02,774.49 703.79,771.59" speed="44.44"/>
      <lane allow="private emergency authority army vip passenger hov taxi bus coach delivery truck trailer motorcycle evehicle custom1 custom2" id=":1581230771_1_1" index="1" length="6.43" shape="698.81,777.69 704.52,774.81" speed="44.44"/>
   </edge>
   <edge function="internal" id=":16477728_0">
      <lane disallow="tram rail_urban rail rail_electric ship" id=":16477728_0_0" index="0" length="6.04" shape="268.58,378.29 267.29,378.17 266.06,378.60 264.89,379.59 263.78,381.14" speed="13.89"/>
   </edge>
   <edge function="internal" id=":16477728_1">
      <lane disallow="tram rail_urban rail rail_electric ship" id=":16477728_1_0" index="0" length="9.63" shape="268.58,378.29 259.39,375.37" speed="13.89"/>
      <lane disallow="tram rail_urban rail rail_electric ship" id=":16477728_1_1" index="1" length="9.63" shape="269.56,375.14 260.40,372.23" speed="13.89"/>
   </edge>
   <edge function="internal" id=":16477728_3">
      <lane disallow="tram rail_urban rail rail_electric ship" id=":16477728_3_0" index="0" length="4.49" shape="269.56,375.14 267.50,374.16 266.40,372.79 266.37,372.34" speed="13.89"/>
   </edge>
   <edge function="internal" id=":16477728_4">
      <lane disallow="tram rail_urban rail rail_electric ship" id=":16477728_4_0" index="0" length="2.41" shape="269.56,375.14 268.62,373.99 268.47,373.08" speed="13.89"/>
   </edge>
   <edge function="internal" id=":16477728_18">
      <lane id=":16477728_18_0" index="0" length="3.62" shape="266.37,372.34 266.27,371.03 267.09,368.89" speed="13.89"/>
   </edge>
   <edge function="internal" id=":16477728_19">
      <lane id=":16477728_19_0" index="0" length="2.41" shape="268.47,373.08 269.11,372.41 270.53,371.99" speed="13.89"/>
   </edge>
   <edge function="internal" id=":16477728_5">
      <lane disallow="tram rail_urban rail rail_electric ship" id=":16477728_5_0" index="0" length="1.36" shape="271.56,367.64 271.34,368.10 271.26,368.46 271.31,368.70 271.51,368.84" speed="13.89"/>
   </edge>
   <edge function="internal" id=":16477728_6">
      <lane disallow="tram rail_urban rail rail_electric ship" id=":16477728_6_0" index="0" length="15.58" shape="271.56,367.64 269.68,370.99 267.71,374.41 265.73,377.83 263.78,381.14" speed="13.89"/>
   </edge>
   <edge function="internal" id=":16477728_7">
      <lane disallow="tram rail_urban rail rail_electric ship" id=":16477728_7_0" index="0" length="6.34" shape="271.56,367.64 269.41,370.53 267.14,372.06" speed="13.89"/>
   </edge>
   <edge function="internal" id=":16477728_8">
      <lane disallow="tram rail_urban rail rail_electric ship" id=":16477728_8_0" index="0" length="5.15" shape="271.56,367.64 270.91,369.63 269.95,370.50 268.67,370.25 268.33,369.95" speed="13.89"/>
   </edge>
   <edge function="internal" id=":16477728_20">
      <lane id=":16477728_20_0" index="0" length="6.90" shape="267.14,372.06 266.84,372.26 263.83,372.83 260.40,372.23" speed="13.89"/>
   </edge>
   <edge function="internal" id=":16477728_21">
      <lane id=":16477728_21_0" index="0" length="1.63" shape="268.33,369.95 267.09,368.89" speed="13.89"/>
   </edge>
   <edge function="internal" id=":16477728_9">
      <lane disallow="tram rail_urban rail rail_electric ship" id=":16477728_9_0" index="0" length="5.51" shape="262.43,365.95 267.09,368.89" speed="13.89"/>
   </edge>
   <edge function="internal" id=":16477728_10">
      <lane disallow="tram rail_urban rail rail_electric ship" id=":16477728_10_0" index="0" length="9.55" shape="262.43,365.95 271.51,368.84" speed="13.89"/>
      <lane disallow="tram rail_urban rail rail_electric ship" id=":16477728_10_1" index="1" length="9.55" shape="261.41,369.09 270.53,371.99" speed="13.89"/>
   </edge>
   <edge function="internal" id=":16477728_12">
      <lane disallow="tram rail_urban rail rail_electric ship" id=":16477728_12_0" index="0" length="5.06" shape="261.41,369.09 264.55,370.81 265.27,372.10" speed="13.89"/>
   </edge>
   <edge function="internal" id=":16477728_13">
      <lane disallow="tram rail_urban rail rail_electric ship" id=":16477728_13_0" index="0" length="2.41" shape="261.41,369.09 262.34,370.26 262.48,371.17" speed="13.89"/>
   </edge>
   <edge function="internal" id=":16477728_22">
      <lane id=":16477728_22_0" index="0" length="9.66" shape="265.27,372.10 265.99,373.39 265.73,376.83 263.78,381.14" speed="13.89"/>
   </edge>
   <edge function="internal" id=":16477728_23">
      <lane id=":16477728_23_0" index="0" length="2.41" shape="262.48,371.17 261.83,371.83 260.40,372.23" speed="13.89"/>
   </edge>
   <edge function="internal" id=":16477728_14">
      <lane disallow="tram rail_urban rail rail_electric ship" id=":16477728_14_0" index="0" length="5.29" shape="260.94,379.46 261.51,378.08 261.44,376.93 260.73,376.03 259.39,375.37" speed="13.89"/>
   </edge>
   <edge function="internal" id=":16477728_15">
      <lane disallow="tram rail_urban rail rail_electric ship" id=":16477728_15_0" index="0" length="12.23" shape="260.94,379.46 262.63,376.61 264.06,374.20 265.46,371.78 267.09,368.89" speed="13.89"/>
   </edge>
   <edge function="internal" id=":16477728_16">
      <lane disallow="tram rail_urban rail rail_electric ship" id=":16477728_16_0" index="0" length="9.08" shape="260.94,379.46 263.49,375.68 265.94,373.18 266.85,372.71" speed="13.89"/>
   </edge>
   <edge function="internal" id=":16477728_17">
      <lane disallow="tram rail_urban rail rail_electric ship" id=":16477728_17_0" index="0" length="2.41" shape="260.94,379.46 262.28,378.82 263.20,378.88" speed="13.89"/>
   </edge>
   <edge function="internal" id=":16477728_24">
      <lane id=":16477728_24_0" index="0" length="3.87" shape="266.85,372.71 268.29,371.95 270.53,371.99" speed="13.89"/>
   </edge>
   <edge function="internal" id=":16477728_25">
      <lane id=":16477728_25_0" index="0" length="2.41" shape="263.20,378.88 263.70,379.65 263.78,381.14" speed="13.89"/>
   </edge>
   <edge function="internal" id=":16477729_0">
      <lane disallow="tram rail_urban rail rail_electric ship" id=":16477729_0_0" index="0" length="8.43" shape="135.41,128.18 128.03,132.23" speed="8.33"/>
   </edge>
   <edge function="internal" id=":16477729_1">
      <lane disallow="tram rail_urban rail rail_electric ship" id=":16477729_1_0" index="0" length="10.08" shape="135.41,128.18 132.80,128.90 130.55,128.59 128.67,127.26 127.17,124.90" speed="8.33"/>
   </edge>
   <edge function="internal" id=":16477729_2">
      <lane disallow="tram rail_urban rail rail_electric ship" id=":16477729_2_0" index="0" length="4.94" shape="135.41,128.18 133.89,128.25 133.05,127.82 132.89,126.89 133.41,125.45" speed="8.33"/>
   </edge>
   <edge function="internal" id=":16477729_3">
      <lane disallow="tram rail_urban rail rail_electric ship" id=":16477729_3_0" index="0" length="4.25" shape="130.17,123.52 130.85,124.69 131.62,125.40 132.47,125.66 133.41,125.45" speed="8.33"/>
   </edge>
   <edge function="internal" id=":16477729_4">
      <lane disallow="tram rail_urban rail rail_electric ship" id=":16477729_4_0" index="0" length="9.90" shape="130.17,123.52 130.99,126.15 130.91,128.47 129.92,130.50 128.03,132.23" speed="8.33"/>
   </edge>
   <edge function="internal" id=":16477729_5">
      <lane disallow="tram rail_urban rail rail_electric ship" id=":16477729_5_0" index="0" length="4.82" shape="130.17,123.52 129.94,124.99 129.36,125.71 128.44,125.68 127.17,124.90" speed="8.33"/>
   </edge>
   <edge function="internal" id=":16477729_6">
      <lane disallow="tram rail_urban rail rail_electric ship" id=":16477729_6_0" index="0" length="5.19" shape="126.18,129.50 127.13,128.61 127.61,127.55 127.62,126.31 127.17,124.90" speed="8.33"/>
   </edge>
   <edge function="internal" id=":16477729_7">
      <lane disallow="tram rail_urban rail rail_electric ship" id=":16477729_7_0" index="0" length="8.29" shape="126.18,129.50 133.41,125.45" speed="8.33"/>
   </edge>
   <edge function="internal" id=":16477729_8">
      <lane disallow="tram rail_urban rail rail_electric ship" id=":16477729_8_0" index="0" length="4.82" shape="126.18,129.50 127.67,129.49 128.47,129.94 128.59,130.86 128.03,132.23" speed="8.33"/>
   </edge>
   <edge function="internal" id=":16477732_0">
      <lane disallow="tram rail_urban rail rail_electric ship" id=":16477732_0_0" index="0" length="5.14" shape="235.44,570.98 235.08,569.68 234.35,568.79 233.27,568.30 231.82,568.22" speed="13.89"/>
   </edge>
   <edge function="internal" id=":16477732_1">
      <lane disallow="tram rail_urban rail rail_electric ship" id=":16477732_1_0" index="0" length="9.47" shape="235.44,570.98 234.40,561.57" speed="13.89"/>
   </edge>
   <edge function="internal" id=":16477732_2">
      <lane disallow="tram rail_urban rail rail_electric ship" id=":16477732_2_0" index="0" length="2.41" shape="235.44,570.98 236.11,569.65 236.88,569.14" speed="13.89"/>
   </edge>
   <edge function="internal" id=":16477732_9">
      <lane id=":16477732_9_0" index="0" length="2.41" shape="236.88,569.14 237.75,569.45 238.72,570.58" speed="13.89"/>
   </edge>
   <edge function="internal" id=":16477732_3">
      <lane disallow="tram rail_urban rail rail_electric ship" id=":16477732_3_0" index="0" length="9.39" shape="237.68,561.25 238.72,570.58" speed="13.89"/>
   </edge>
   <edge function="internal" id=":16477732_4">
      <lane disallow="tram rail_urban rail rail_electric ship" id=":16477732_4_0" index="0" length="5.22" shape="237.68,561.25 237.56,564.12 236.54,566.24" speed="13.89"/>
   </edge>
   <edge function="internal" id=":16477732_5">
      <lane disallow="tram rail_urban rail rail_electric ship" id=":16477732_5_0" index="0" length="2.41" shape="237.68,561.25 236.99,562.56 236.20,563.05" speed="13.89"/>
   </edge>
   <edge function="internal" id=":16477732_10">
      <lane id=":16477732_10_0" index="0" length="5.22" shape="236.54,566.24 234.63,567.60 231.82,568.22" speed="13.89"/>
   </edge>
   <edge function="internal" id=":16477732_11">
      <lane id=":16477732_11_0" index="0" length="2.41" shape="236.20,563.05 235.34,562.72 234.40,561.57" speed="13.89"/>
   </edge>
   <edge function="internal" id=":16477732_6">
      <lane disallow="tram rail_urban rail rail_electric ship" id=":16477732_6_0" index="0" length="5.03" shape="231.58,564.93 232.93,564.63 233.85,563.97 234.34,562.95 234.40,561.57" speed="13.89"/>
   </edge>
   <edge function="internal" id=":16477732_7">
      <lane disallow="tram rail_urban rail rail_electric ship" id=":16477732_7_0" index="0" length="10.27" shape="231.58,564.93 234.42,565.11 236.56,566.11 237.99,567.93 238.72,570.58" speed="13.89"/>
   </edge>
   <edge function="internal" id=":16477732_8">
      <lane disallow="tram rail_urban rail rail_electric ship" id=":16477732_8_0" index="0" length="4.82" shape="231.58,564.93 232.87,565.66 233.34,566.45 232.99,567.31 231.82,568.22" speed="13.89"/>
   </edge>
   <edge function="internal" id=":16477733_0">
      <lane disallow="tram rail_urban rail rail_electric ship" id=":16477733_0_0" index="0" length="11.48" shape="250.57,700.71 249.14,700.33 246.93,700.84 243.94,702.26 240.17,704.57" speed="9.73"/>
   </edge>
   <edge function="internal" id=":16477733_1">
      <lane allow="delivery bicycle pedestrian" id=":16477733_1_0" index="0" length="13.79" shape="250.57,700.71 247.55,699.01 244.35,698.29 240.94,698.09 237.31,697.97" speed="5.56"/>
   </edge>
   <edge function="internal" id=":16477733_2">
      <lane disallow="tram rail_urban rail rail_electric ship" id=":16477733_2_0" index="0" length="9.32" shape="250.57,700.71 248.97,699.06 247.94,697.12 247.49,694.87 247.60,692.34" speed="9.73"/>
   </edge>
   <edge function="internal" id=":16477733_3">
      <lane allow="delivery bicycle pedestrian" id=":16477733_3_0" index="0" length="4.82" shape="250.57,700.71 250.12,699.29 250.31,698.39 251.14,698.00 252.62,698.12" speed="5.56"/>
   </edge>
   <edge function="internal" id=":16477733_4">
      <lane allow="delivery bicycle pedestrian" id=":16477733_4_0" index="0" length="5.86" shape="250.86,692.82 250.78,694.46 251.04,695.89 251.66,697.11 252.62,698.12" speed="9.73"/>
   </edge>
   <edge function="internal" id=":16477733_5">
      <lane disallow="tram rail_urban rail rail_electric ship" id=":16477733_5_0" index="0" length="16.25" shape="250.86,692.82 249.91,695.49 247.81,698.34 244.56,701.37 240.17,704.57" speed="13.89"/>
   </edge>
   <edge function="internal" id=":16477733_6">
      <lane allow="delivery bicycle pedestrian" id=":16477733_6_0" index="0" length="6.43" shape="250.86,692.82 249.69,695.37 247.04,697.07 246.57,697.17" speed="9.73"/>
   </edge>
   <edge function="internal" id=":16477733_7">
      <lane disallow="tram rail_urban rail rail_electric ship" id=":16477733_7_0" index="0" length="2.80" shape="250.86,692.82 249.87,693.92 248.99,694.21 248.67,693.99" speed="13.89"/>
   </edge>
   <edge function="internal" id=":16477733_16">
      <lane id=":16477733_16_0" index="0" length="9.34" shape="246.57,697.17 242.91,697.94 237.31,697.97" speed="9.73"/>
   </edge>
   <edge function="internal" id=":16477733_17">
      <lane id=":16477733_17_0" index="0" length="2.02" shape="248.67,693.99 248.23,693.68 247.60,692.34" speed="13.89"/>
   </edge>
   <edge function="internal" id=":16477733_8">
      <lane disallow="tram rail_urban rail rail_electric ship" id=":16477733_8_0" index="0" length="10.95" shape="237.52,694.68 241.76,694.75 244.86,694.39 246.81,693.58 247.60,692.34" speed="9.73"/>
   </edge>
   <edge function="internal" id=":16477733_9">
      <lane allow="delivery bicycle pedestrian" id=":16477733_9_0" index="0" length="15.72" shape="237.52,694.68 241.43,694.91 245.47,695.35 249.31,696.32 252.62,698.12" speed="5.56"/>
   </edge>