<?xml version="1.0" encoding="utf-8"?><!-- generated on 10/11/17 17:57:17 by SUMO polyconvert Version 0.25.0
<?xml version="1.0" encoding="UTF-8"?>

<configuration xmlns:xsi="http://www.w3.org/2001/XMLSchema-instance" xsi:noNamespaceSchemaLocation="http://sumo.dlr.de/xsd/polyconvertConfiguration.xsd">

    <input>
        <net-file value="M_Schwabing_historical_800.net.xml"/>
        <osm-files value="M_Schwabing_historical_800.osm"/>
        <type-file value="osmPolyconvert.typ.xml"/>
    </input>

    <output>
        <output-file value="M_Schwabing_historical_800.poly.xml"/>
    </output>

    <projection>
        <proj.utm value="true"/>
    </projection>

    <processing>
        <poi-layer-offset value="5"/>
    </processing>

</configuration>
-->
<additional>
   <location convBoundary="-2.42,-1.02,822.30,822.33" netOffset="-691096.85,-5336624.41" origBoundary="11.569803,48.154071,11.580619,48.161289" projParameter="+proj=utm +zone=32 +ellps=WGS84 +datum=WGS84 +units=m +no_defs"/>
   <poly color="red" fill="1" id="108719315" layer="-1.00" shape="173.15,524.67 180.57,542.52 165.97,548.14 165.00,545.79 157.83,548.68 152.65,535.86 160.04,532.90 159.18,530.21 173.15,524.67" type="building"/>
   <poly color="red" fill="1" id="108719316" layer="-1.00" shape="223.15,688.50 235.26,683.65 240.09,696.38 240.22,703.68 240.19,709.31 217.79,709.60 217.56,696.83 226.62,696.53 223.15,688.50" type="building"/>
   <poly color="red" fill="1" id="108719317" layer="-1.00" shape="110.59,496.64 119.55,493.11 127.77,515.15 122.83,516.99 120.58,510.96 119.63,508.42 115.22,510.09 110.59,496.64" type="building"/>
   <poly color="red" fill="1" id="108719318" layer="-1.00" shape="214.09,538.57 217.60,546.73 232.01,540.91 235.86,550.38 221.66,556.11 222.48,558.13 208.96,563.58 200.94,543.87 214.09,538.57" type="building"/>
   <poly color="red" fill="1" id="108719319" layer="-1.00" shape="149.61,511.32 144.69,513.13 140.97,503.10 139.99,500.43 144.90,498.62 149.61,511.32" type="building"/>
   <poly color="red" fill="1" id="108719320" layer="-1.00" shape="185.16,710.02 167.37,712.13 165.38,697.94 165.22,696.50 169.68,695.97 168.73,689.41 179.77,687.18 180.92,695.32 184.64,695.52 184.93,696.93 185.16,710.02" type="building"/>
   <poly color="red" fill="1" id="108719321" layer="-1.00" shape="228.78,667.56 232.25,676.17 235.26,683.65 223.15,688.50 219.73,680.03 218.15,680.67 215.08,673.05 228.78,667.56" type="building"/>
   <poly color="red" fill="1" id="108719322" layer="-1.00" shape="133.57,627.37 138.41,639.56 123.14,645.59 113.61,621.64 133.54,613.76 138.22,625.54 133.57,627.37" type="building"/>
   <poly color="red" fill="1" id="108719323" layer="-1.00" shape="188.38,673.49 205.48,667.02 200.73,654.51 183.63,660.98 188.38,673.49" type="building"/>
   <poly color="red" fill="1" id="108719324" layer="-1.00" shape="135.03,487.10 131.44,488.44 122.35,491.81 119.55,493.11 127.77,515.15 134.28,512.67 131.94,506.44 140.97,503.10 139.99,500.43 138.86,497.35 135.03,487.10" type="building"/>
   <poly color="red" fill="1" id="108719326" layer="-1.00" shape="182.26,609.19 178.23,610.75 181.63,619.42 169.94,623.99 166.57,615.40 164.36,616.26 159.12,602.96 168.84,599.16 177.06,595.95 182.26,609.19" type="building"/>
   <poly color="red" fill="1" id="108719327" layer="-1.00" shape="147.58,586.14 153.48,583.82 153.95,585.00 161.15,582.17 160.59,580.75 165.37,578.87 162.10,570.58 160.73,571.12 160.08,569.47 156.48,560.36 143.29,565.54 145.91,572.14 142.56,573.46 147.58,586.14" type="building"/>
   <poly color="184,184,179" fill="1" id="108719329" layer="-1.00" shape="170.49,500.49 166.26,502.03 156.99,477.80 161.97,475.86 170.49,500.49" type="parking"/>
   <poly color="red" fill="1" id="108719330" layer="-1.00" shape="187.90,475.66 189.78,475.06 191.74,479.71 193.63,480.15 196.98,489.06 182.23,494.74 176.15,480.00 187.90,475.66" type="building"/>
   <poly color="red" fill="1" id="108719331" layer="-1.00" shape="133.54,613.76 150.55,607.05 154.03,615.81 157.55,624.66 153.96,626.07 154.86,628.34 146.81,631.52 144.54,625.84 139.18,627.96 138.22,625.54 133.54,613.76" type="building"/>
   <poly color="red" fill="1" id="108719332" layer="-1.00" shape="163.86,502.45 154.09,506.02 149.48,493.48 138.86,497.35 135.03,487.10 144.67,483.61 147.02,482.76 154.82,479.91 155.49,479.66 163.86,502.45" type="building"/>
   <poly color="207,245,201" fill="1" id="108719333" layer="-2.00" shape="119.98,485.39 122.35,491.81 131.44,488.44 129.08,482.06 119.98,485.39" type="leisure"/>
   <poly color="red" fill="1" id="108719334" layer="-1.00" shape="138.41,639.56 123.14,645.59 130.74,664.71 140.46,660.87 146.01,658.67 141.27,646.73 138.41,639.56" type="building"/>
   <poly color="207,245,201" fill="1" id="108719335" layer="-2.00" shape="117.02,486.79 119.55,493.11 110.59,496.64 93.30,502.96 69.96,511.50 79.15,536.10 76.29,537.20 64.58,506.98 117.02,486.79" type="leisure"/>
   <poly color="red" fill="1" id="108719336" layer="-1.00" shape="199.01,709.85 198.60,687.05 205.29,686.94 205.49,698.51 208.05,698.46 208.00,695.70 217.54,695.53 217.56,696.83 217.79,709.60 199.01,709.85" type="building"/>
   <poly color="red" fill="1" id="108719337" layer="-1.00" shape="221.66,463.18 200.46,470.28 199.69,469.56 194.80,456.78 216.38,448.80 221.66,463.18" type="building"/>
   <poly color="red" fill="1" id="108719338" layer="-1.00" shape="206.24,645.73 218.66,641.02 222.33,650.67 226.29,661.06 206.12,668.69 205.48,667.02 200.73,654.51 208.47,651.59 206.24,645.73" type="building"/>
   <poly color="red" fill="1" id="108719339" layer="-1.00" shape="194.80,456.78 199.69,469.56 192.85,472.10 191.30,471.19 186.75,472.66 187.90,475.66 176.15,480.00 170.70,465.48 194.80,456.78" type="building"/>
   <poly color="red" fill="1" id="108719340" layer="-1.00" shape="130.36,522.52 125.08,524.55 104.52,532.75 102.17,526.88 127.97,516.64 130.36,522.52" type="building"/>
   <poly color="red" fill="1" id="108719341" layer="-1.00" shape="130.36,522.52 125.08,524.55 127.55,530.93 132.82,528.90 130.36,522.52" type="building"/>
   <poly color="red" fill="1" id="108719342" layer="-1.00" shape="167.37,712.13 150.76,714.48 146.85,704.99 141.73,691.61 153.42,687.06 157.25,685.69 160.61,693.50 157.93,694.60 159.51,698.80 165.38,697.94 167.37,712.13" type="building"/>
   <poly color="red" fill="1" id="108719343" layer="-1.00" shape="105.99,538.68 109.85,549.20 105.21,550.89 106.94,555.61 103.59,556.78 90.10,561.80 89.48,560.08 87.60,560.76 85.38,554.70 86.74,554.20 83.99,546.71 93.82,543.12 105.99,538.68" type="building"/>
   <poly color="red" fill="1" id="108719344" layer="-1.00" shape="113.42,575.15 115.44,580.15 111.66,581.68 113.01,584.97 119.05,582.53 124.53,595.96 106.33,603.33 97.44,581.40 110.93,576.38 113.42,575.15" type="building"/>
   <poly color="red" fill="1" id="108719345" layer="-1.00" shape="233.72,500.24 233.83,482.71 227.66,482.50 227.72,484.04 220.22,484.38 220.26,493.98 216.05,495.50 217.93,503.15 222.15,501.84 228.26,499.94 233.72,500.24" type="building"/>
   <poly color="184,184,179" fill="1" id="108719347" layer="-1.00" shape="195.01,562.12 190.23,563.96 177.01,529.69 181.81,527.85 195.01,562.12" type="parking"/>
   <poly color="red" fill="1" id="108719348" layer="-1.00" shape="264.39,476.93 253.51,478.22 249.98,452.89 241.72,454.81 237.13,441.88 257.18,435.99 259.90,446.63 260.59,449.32 262.75,465.03 264.39,476.93" type="building"/>
   <poly color="red" fill="1" id="108719349" layer="-1.00" shape="224.79,517.51 230.07,516.76 228.26,499.94 222.15,501.84 224.79,517.51" type="building"/>
   <poly color="red" fill="1" id="108719350" layer="-1.00" shape="195.87,642.32 178.86,648.76 174.08,636.18 191.08,629.75 195.87,642.32" type="building"/>
   <poly color="red" fill="1" id="108719351" layer="-1.00" shape="239.65,549.95 235.91,538.26 254.25,532.98 254.52,526.62 265.53,526.40 266.98,541.43 254.72,545.14 239.65,549.95" type="building"/>
   <poly color="red" fill="1" id="108719353" layer="-1.00" shape="213.31,508.13 218.61,521.54 195.61,530.58 190.30,517.18 213.31,508.13" type="building"/>
   <poly color="184,184,179" fill="1" id="108719355" layer="-1.00" shape="182.49,503.61 177.12,505.45 164.51,472.13 169.64,470.37 182.49,503.61" type="parking"/>
   <poly color="207,245,201" fill="1" id="108719356" layer="-2.00" shape="152.36,473.45 154.82,479.91 147.02,482.76 144.59,476.39 152.36,473.45" type="leisure"/>
   <poly color="red" fill="1" id="108719357" layer="-1.00" shape="160.52,639.12 165.27,651.06 156.83,654.40 146.01,658.67 141.27,646.73 160.52,639.12" type="building"/>
   <poly color="red" fill="1" id="108719358" layer="-1.00" shape="167.12,509.60 160.10,512.39 160.35,513.01 147.35,518.17 151.47,528.46 157.53,526.06 159.18,530.21 173.15,524.67 167.12,509.60" type="building"/>
   <poly color="red" fill="1" id="108719361" layer="-1.00" shape="265.53,526.40 264.74,513.39 263.89,499.33 251.98,500.11 252.40,504.96 245.08,504.71 245.29,521.24 252.69,521.08 252.75,526.21 254.52,526.62 265.53,526.40" type="building"/>
   <poly color="red" fill="1" id="108719362" layer="-1.00" shape="190.24,627.52 210.58,619.83 214.09,629.04 218.66,641.02 206.24,645.73 202.89,636.92 199.11,638.36 200.03,640.75 195.87,642.32 191.08,629.75 190.24,627.52" type="building"/>
   <poly color="red" fill="1" id="108719363" layer="-1.00" shape="168.85,657.41 174.13,670.90 164.10,674.80 164.38,675.51 150.94,680.75 153.42,687.06 141.73,691.61 139.35,685.53 137.06,679.68 136.15,680.03 133.66,673.69 141.53,670.63 141.24,669.89 145.40,668.27 145.61,668.82 156.03,664.76 155.65,663.79 159.68,662.23 162.78,661.02 162.35,659.93 168.85,657.41" type="building"/>
   <poly color="red" fill="1" id="108719364" layer="-1.00" shape="263.89,499.33 265.06,498.95 264.70,485.83 255.27,486.08 243.59,486.40 243.91,497.14 252.06,496.56 251.98,500.11 263.89,499.33" type="building"/>
   <poly color="red" fill="1" id="108719365" layer="-1.00" shape="197.90,587.81 199.20,591.13 207.19,611.47 193.12,616.96 189.03,606.54 182.26,609.19 177.06,595.95 188.14,591.63 197.90,587.81" type="building"/>
   <poly color="red" fill="1" id="108719366" layer="-1.00" shape="128.59,533.09 125.51,534.23 125.81,535.03 119.50,537.37 123.91,549.24 131.99,546.25 136.18,557.55 143.90,554.71 140.16,544.66 149.94,541.05 147.17,533.58 130.99,539.56 128.59,533.09" type="building"/>
   <poly color="red" fill="1" id="108719367" layer="-1.00" shape="218.61,521.54 222.76,532.58 213.20,536.31 214.09,538.57 200.94,543.87 195.61,530.58 218.61,521.54" type="building"/>
   <poly color="red" fill="1" id="108719368" layer="-1.00" shape="185.16,710.02 199.01,709.85 198.60,687.05 192.59,687.16 192.76,696.79 184.93,696.93 185.16,710.02" type="building"/>
   <poly color="red" fill="1" id="108719369" layer="-1.00" shape="238.77,528.24 238.59,519.72 233.60,519.77 233.92,530.38 238.77,528.24" type="building"/>
   <poly color="red" fill="1" id="108719371" layer="-1.00" shape="180.57,542.52 191.30,570.20 172.40,577.49 167.03,563.64 171.33,561.98 165.97,548.14 180.57,542.52" type="building"/>
   <poly color="207,245,201" fill="1" id="108719372" layer="-2.00" shape="142.31,477.23 144.67,483.61 135.03,487.10 131.44,488.44 129.08,482.06 142.31,477.23" type="leisure"/>
   <poly color="red" fill="1" id="108719374" layer="-1.00" shape="110.93,576.38 97.44,581.40 94.15,572.61 90.10,561.80 103.59,556.78 110.93,576.38" type="building"/>
   <poly color="red" fill="1" id="108719376" layer="-1.00" shape="125.51,577.25 131.32,591.95 135.40,590.34 135.95,591.75 140.62,589.91 144.28,588.47 143.93,587.58 147.58,586.14 142.56,573.46 139.42,574.69 136.92,568.36 129.89,571.13 131.39,574.93 125.51,577.25" type="building"/>
   <poly color="red" fill="1" id="108719378" layer="-1.00" shape="196.98,489.06 198.46,488.49 199.42,490.96 203.75,489.29 208.49,501.48 187.91,509.41 182.23,494.74 196.98,489.06" type="building"/>
   <poly color="184,184,179" fill="1" id="108719379" layer="-1.00" shape="199.53,559.77 204.60,557.71 196.17,537.17 191.10,539.23 199.53,559.77" type="parking"/>
   <poly color="red" fill="1" id="108719380" layer="-1.00" shape="241.72,454.81 241.93,456.02 238.74,457.10 240.90,464.21 238.51,465.16 239.19,467.24 230.16,470.58 229.58,468.17 227.02,468.98 224.35,462.28 221.66,463.18 216.38,448.80 237.13,441.88 241.72,454.81" type="building"/>
   <poly color="red" fill="1" id="109067906" layer="-1.00" shape="57.67,607.83 63.07,621.21 46.28,626.46 42.61,616.76 38.50,605.93 51.37,600.15 54.90,609.03 57.67,607.83" type="building"/>
   <poly color="red" fill="1" id="109067910" layer="-1.00" shape="64.15,595.33 67.38,603.35 57.67,607.83 63.07,621.21 85.21,612.49 76.35,590.46 64.15,595.33" type="building"/>
   <poly color="red" fill="1" id="109067911" layer="-1.00" shape="24.06,635.50 24.17,635.80 33.39,632.19 41.41,629.05 36.78,617.31 36.32,617.49 31.28,604.69 20.19,609.04 25.11,621.50 19.42,623.73 24.06,635.50" type="building"/>
   <poly color="red" fill="1" id="109067912" layer="-1.00" shape="7.92,596.38 7.31,594.82 1.92,581.05 22.32,573.11 28.33,588.43 7.92,596.38" type="building"/>
   <poly color="red" fill="1" id="109067913" layer="-1.00" shape="325.31,558.89 335.33,558.84 335.44,555.42 354.67,555.28 354.77,560.28 368.34,560.45 369.15,542.87 354.10,543.83 331.60,545.57 325.20,546.11 325.31,558.89" type="building"/>
   <poly color="red" fill="1" id="109067915" layer="-1.00" shape="76.35,590.46 69.13,572.50 62.36,575.20 49.21,580.45 53.38,590.83 61.10,587.74 64.15,595.33 76.35,590.46" type="building"/>
   <poly color="red" fill="1" id="110364071" layer="-1.00" shape="386.60,801.40 409.26,804.63 386.60,801.40" type="building"/>
   <poly color="red" fill="1" id="110364072" layer="-1.00" shape="428.89,807.44 409.26,804.63 420.04,806.17 428.89,807.44" type="building"/>
   <poly color="red" fill="1" id="110364073" layer="-1.00" shape="437.66,808.15 449.19,809.56 462.40,811.15 437.66,808.15" type="building"/>
   <poly color="red" fill="1" id="110364075" layer="-1.00" shape="469.75,811.97" type="building"/>
   <poly color="red" fill="1" id="110365364" layer="-1.00" shape="423.74,790.34 425.71,776.32 411.15,774.30 409.19,788.31 415.20,789.14 423.74,790.34" type="building"/>
   <poly color="red" fill="1" id="110366583" layer="-1.00" shape="408.83,746.52 395.16,744.70 394.19,751.97 393.85,754.49 407.53,756.32 407.83,754.06 408.24,750.96 408.83,746.52" type="building"/>
   <poly color="red" fill="1" id="110366588" layer="-1.00" shape="405.82,769.10 406.27,765.78 407.53,756.32 393.85,754.49 392.91,761.58 392.15,767.29 405.82,769.10" type="building"/>
   <poly color="red" fill="1" id="110370288" layer="-1.00" shape="383.42,596.83 382.08,606.94 381.33,609.22 381.85,611.25 383.49,612.36 386.33,611.07 393.28,612.49 399.66,612.51 402.98,614.81 404.32,614.12 405.06,612.09 404.60,608.29 406.52,595.35 387.39,591.89 386.71,597.15 383.42,596.83" type="building"/>
   <poly color="red" fill="1" id="110378259" layer="-1.00" shape="399.83,639.13 391.92,637.96 388.87,658.32 388.64,659.91 386.48,674.39 390.42,674.98 394.40,675.57 395.96,665.10 396.60,660.84 396.81,659.42 399.83,639.13" type="building"/>
   <poly color="red" fill="1" id="110378261" layer="-1.00" shape="560.78,788.69 561.50,800.88 556.23,806.42 547.55,805.58 540.45,804.90 541.55,794.38 548.13,795.22 548.49,789.81 560.78,788.69" type="building"/>
   <poly color="red" fill="1" id="110378262" layer="-1.00" shape="303.32,707.99 325.19,703.16 323.18,690.16 302.55,691.24 302.81,694.39 303.32,707.99" type="building"/>
   <poly color="red" fill="0" id="110381508" layer="-1.00" shape="674.41,817.83 682.96,816.94 690.81,816.45" type="building"/>
   <poly color="red" fill="1" id="110381513" layer="-1.00" shape="542.68,786.98 541.91,777.97 553.02,776.98 559.95,776.37 560.78,788.69 548.49,789.81 548.22,786.53 542.68,786.98" type="building"/>
   <poly color="red" fill="1" id="110381519" layer="-1.00" shape="713.74,814.65 690.81,816.45 713.74,814.65" type="building"/>
   <poly color="red" fill="1" id="110387876" layer="-1.00" shape="548.15,756.30 548.44,759.96 535.33,760.98 536.03,769.93 552.77,768.64 558.53,768.20 557.55,755.57 548.15,756.30" type="building"/>
   <poly color="red" fill="1" id="110403470" layer="-1.00" shape="484.74,797.82 485.92,790.04 486.83,790.07 487.47,784.78 488.64,775.20 489.74,775.37 496.77,776.49 499.04,776.84 498.11,784.71 501.69,785.34 501.38,787.48 499.60,799.53 484.74,797.82" type="building"/>
   <poly color="red" fill="1" id="110403471" layer="-1.00" shape="537.69,730.11 541.64,729.79 541.75,731.19 547.70,730.72 547.59,729.44 555.66,728.80 554.21,710.62 553.48,698.95 523.93,700.82 525.27,717.73 536.41,716.69 536.38,714.92 540.72,714.58 541.15,719.91 536.76,720.25 537.69,730.11" type="building"/>
   <poly color="red" fill="1" id="110407143" layer="-1.00" shape="420.16,691.59 420.14,688.68 409.57,686.63 411.98,671.80 424.75,674.13 423.92,678.32 432.49,678.18 433.56,690.85 420.16,691.59" type="building"/>
   <poly color="red" fill="1" id="110407144" layer="-1.00" shape="503.36,771.16 505.23,756.37 492.38,755.07 489.74,775.37 496.77,776.49 497.61,770.85 503.36,771.16" type="building"/>
   <poly color="red" fill="1" id="110407145" layer="-1.00" shape="517.73,801.94 532.14,803.68 533.04,798.59 532.18,798.50 532.58,794.51 533.28,787.56 531.62,787.39 531.92,784.48 528.84,784.03 529.14,779.89 523.18,779.39 522.56,790.49 518.92,790.14 517.73,801.94" type="building"/>
   <poly color="red" fill="1" id="110407146" layer="-1.00" shape="499.60,799.53 502.01,799.85 505.18,800.27 517.73,801.94 518.92,790.14 514.11,789.67 514.41,787.02 516.68,787.21 517.61,779.01 523.18,779.39 522.04,771.47 511.20,773.72 509.12,788.54 501.38,787.48 499.60,799.53" type="building"/>
   <poly color="red" fill="1" id="110509729" layer="-1.00" shape="490.33,714.96 496.53,714.55 510.26,713.37 509.28,702.05 497.92,702.93 489.36,703.60 490.33,714.96" type="building"/>
   <poly color="red" fill="1" id="110509730" layer="-1.00" shape="408.24,750.96 413.86,751.65 424.43,752.95 423.54,748.31 408.83,746.52 408.24,750.96" type="building"/>
   <poly color="red" fill="1" id="110509735" layer="-1.00" shape="422.47,738.08 416.08,736.70 415.50,743.01 409.53,741.31 408.83,746.52 423.54,748.31 422.47,738.08" type="building"/>
   <poly color="red" fill="1" id="110509738" layer="-1.00" shape="478.50,774.14 479.87,760.78 465.24,759.44 464.01,770.68 463.85,771.56 468.08,771.99 467.97,773.06 478.50,774.14" type="building"/>
   <poly color="red" fill="1" id="110509745" layer="-1.00" shape="510.60,716.84 512.34,716.86 519.31,716.06 519.77,721.22 525.55,720.71 525.27,717.73 523.93,700.82 510.92,701.93 509.28,702.05 510.26,713.37 510.60,716.84" type="building"/>
   <poly color="red" fill="1" id="110509747" layer="-1.00" shape="395.16,744.70 396.63,733.67 408.78,735.29 410.30,735.49 409.53,741.31 408.83,746.52 395.16,744.70" type="building"/>
   <poly color="red" fill="1" id="110509749" layer="-1.00" shape="433.29,759.13 432.35,750.27 440.34,749.43 439.01,727.99 433.97,728.39 433.38,722.73 431.13,722.96 426.64,723.45 426.16,720.24 425.40,708.86 444.93,707.44 449.66,707.10 453.46,756.76 449.97,757.15 445.67,757.68 433.29,759.13" type="building"/>
   <poly color="red" fill="1" id="110509754" layer="-1.00" shape="460.75,794.80 476.36,796.77 477.55,784.28 478.50,774.14 467.97,773.06 466.69,781.37 462.26,781.08 460.75,794.80" type="building"/>
   <poly color="red" fill="1" id="110509758" layer="-1.00" shape="446.60,793.12 456.75,794.32 460.75,794.80 462.26,781.08 458.24,780.65 453.97,780.18 455.11,769.72 464.01,770.68 465.24,759.44 457.80,758.64 457.26,763.55 450.29,762.73 446.60,793.12" type="building"/>
   <poly color="red" fill="1" id="110509760" layer="-1.00" shape="432.15,791.39 446.60,793.12 450.29,762.73 449.97,757.15 445.67,757.68 433.29,759.13 436.29,760.14 436.23,764.36 442.92,765.17 441.63,777.92 433.65,777.03 432.15,791.39" type="building"/>
   <poly color="red" fill="1" id="110509762" layer="-1.00" shape="414.64,709.57 413.48,720.11 426.16,720.24 425.40,708.86 414.64,709.57" type="building"/>
   <poly color="red" fill="1" id="110509764" layer="-1.00" shape="492.35,745.88 503.08,745.18 501.43,719.98 496.91,720.27 496.53,714.55 490.33,714.96 492.35,745.88" type="building"/>
   <poly color="red" fill="1" id="110516506" layer="-1.00" shape="411.98,671.80 415.64,651.86 427.36,654.01 426.88,656.65 432.44,657.67 430.19,669.90 425.67,669.09 424.75,674.13 411.98,671.80" type="building"/>
   <poly color="red" fill="1" id="110516509" layer="-1.00" shape="406.52,595.35 410.16,575.26 407.03,574.69 387.06,571.08 386.18,575.95 390.15,576.66 387.39,591.89 406.52,595.35" type="building"/>
   <poly color="red" fill="1" id="110516512" layer="-1.00" shape="422.33,607.95 426.20,586.43 426.24,584.11 442.53,583.07 443.13,595.68 436.22,595.92 435.44,601.50 437.69,601.37 436.32,610.57 422.33,607.95" type="building"/>
   <poly color="red" fill="1" id="110516514" layer="-1.00" shape="418.89,631.06 421.72,611.51 435.20,613.61 432.65,630.52 432.27,633.00 418.89,631.06" type="building"/>
   <poly color="red" fill="1" id="110516515" layer="-1.00" shape="479.38,687.23 499.07,685.78 498.55,679.11 497.96,671.60 485.71,672.54 478.44,674.45 479.38,687.23" type="building"/>
   <poly color="red" fill="1" id="110516516" layer="-1.00" shape="461.58,659.85 460.73,648.33 476.30,647.20 477.15,658.72 461.58,659.85" type="building"/>
   <poly color="red" fill="1" id="110516517" layer="-1.00" shape="457.06,636.03 475.20,634.67 485.95,633.79 484.72,617.21 473.24,618.06 473.48,621.19 469.05,621.51 469.12,622.47 462.89,622.92 462.98,624.24 456.22,624.74 457.06,636.03" type="building"/>
   <poly color="red" fill="1" id="110516518" layer="-1.00" shape="442.53,583.07 453.16,582.24 460.68,581.58 462.63,583.18 462.73,601.76 450.13,603.17 449.67,596.67 443.39,597.08 443.13,595.68 442.53,583.07" type="building"/>
   <poly color="red" fill="1" id="110516519" layer="-1.00" shape="433.56,690.85 445.02,689.87 456.26,688.94 455.19,676.27 438.08,677.71 432.49,678.18 433.56,690.85" type="building"/>
   <poly color="red" fill="1" id="110516520" layer="-1.00" shape="471.20,603.94 469.33,581.45 508.27,578.25 510.13,600.73 501.84,601.41 494.36,602.03 493.56,592.38 487.04,592.91 487.84,602.58 479.50,603.27 471.20,603.94" type="building"/>
   <poly color="red" fill="1" id="110516521" layer="-1.00" shape="415.64,651.86 417.90,636.94 418.89,631.06 432.27,633.00 430.58,638.46 427.36,654.01 415.64,651.86" type="building"/>
   <poly color="red" fill="1" id="110516522" layer="-1.00" shape="456.26,688.94 458.15,688.78 466.34,688.18 479.38,687.23 478.44,674.45 457.33,676.00 455.19,676.27 456.26,688.94" type="building"/>
   <poly color="red" fill="1" id="110518610" layer="-1.00" shape="604.28,692.81 606.52,692.63 607.30,692.55 615.73,691.80 616.76,703.19 615.01,703.34 608.16,703.91 605.22,704.16 604.28,692.81" type="building"/>
   <poly color="red" fill="1" id="110518611" layer="-1.00" shape="580.31,790.07 581.61,804.22 585.53,803.99 591.84,803.66 602.94,803.05 602.30,791.65 594.11,792.10 594.25,789.25 592.49,789.35 580.31,790.07" type="building"/>
   <poly color="red" fill="1" id="110518612" layer="-1.00" shape="578.23,765.99 590.52,765.41 590.71,748.80 577.10,749.87 577.63,757.42 578.23,765.99" type="building"/>
   <poly color="red" fill="1" id="110518613" layer="-1.00" shape="516.78,592.54 515.51,577.85 539.24,575.82 540.23,587.32 540.81,594.03 526.85,595.23 526.39,589.85 523.50,590.10 523.66,591.95 516.78,592.54" type="building"/>
   <poly color="red" fill="1" id="110518614" layer="-1.00" shape="545.61,664.41 545.82,667.06 546.82,680.25 525.01,681.88 524.25,671.91 531.74,671.34 531.51,668.26 531.30,665.48 545.61,664.41" type="building"/>
   <poly color="red" fill="1" id="110518615" layer="-1.00" shape="505.40,650.82 513.89,650.18 513.66,647.19 529.82,645.97 530.11,649.76 544.42,648.68 543.23,633.10 531.16,634.00 504.27,636.03 505.40,650.82" type="building"/>
   <poly color="red" fill="1" id="110518616" layer="-1.00" shape="576.23,734.23 589.90,733.17 590.71,748.80 577.10,749.87 576.68,741.98 576.23,734.23" type="building"/>
   <poly color="red" fill="1" id="110518617" layer="-1.00" shape="504.91,657.31 512.98,656.70 513.33,661.37 515.64,661.20 516.50,672.50 524.25,671.91 525.01,681.88 506.88,683.26 506.43,677.30 504.91,657.31" type="building"/>
   <poly color="red" fill="1" id="110518618" layer="-1.00" shape="589.46,693.94 602.22,692.90 604.28,692.81 605.22,704.16 601.24,704.49 600.48,704.54 593.26,705.12 590.40,705.34 589.46,693.94" type="building"/>
   <poly color="red" fill="1" id="110518619" layer="-1.00" shape="574.94,718.86 585.17,717.99 588.70,717.72 589.90,733.17 576.23,734.23 575.97,730.78 574.94,718.86" type="building"/>
   <poly color="red" fill="1" id="110518620" layer="-1.00" shape="598.03,676.78 616.30,675.60 615.81,668.07 614.79,652.26 604.06,652.95 604.78,664.04 597.23,664.54 598.03,676.78" type="building"/>
   <poly color="red" fill="1" id="110518621" layer="-1.00" shape="517.90,607.94 541.64,606.03 541.16,601.31 540.81,594.03 526.85,595.23 526.99,601.50 517.59,602.18 517.90,607.94" type="building"/>
   <poly color="red" fill="1" id="110518622" layer="-1.00" shape="574.53,660.47 573.88,650.38 573.25,640.77 591.50,639.59 592.26,651.26 588.41,651.51 588.52,653.16 588.93,659.54 574.53,660.47" type="building"/>
   <poly color="red" fill="1" id="110518623" layer="-1.00" shape="606.09,785.65 618.76,784.87 619.34,794.26 619.81,801.98 602.94,803.05 602.30,791.65 606.45,791.50 606.09,785.65" type="building"/>
   <poly color="red" fill="1" id="110518624" layer="-1.00" shape="531.30,665.48 545.61,664.41 545.00,656.34 544.58,650.88 544.42,648.68 530.11,649.76 530.29,652.14 531.30,665.48" type="building"/>
   <poly color="red" fill="1" id="110518625" layer="-1.00" shape="579.25,773.78 597.03,772.66 597.69,783.23 592.12,783.57 592.49,789.35 580.31,790.07 579.83,782.41 579.25,773.78" type="building"/>
   <poly color="red" fill="1" id="110518626" layer="-1.00" shape="574.53,660.47 588.93,659.54 589.29,665.05 597.23,664.54 598.03,676.78 587.93,677.43 575.68,678.22 574.53,660.47" type="building"/>
   <poly color="red" fill="1" id="110518627" layer="-1.00" shape="573.59,695.17 589.46,693.94 590.40,705.34 584.32,705.79 585.17,717.99 574.94,718.86 574.38,707.65 573.59,695.17" type="building"/>
   <poly color="red" fill="1" id="110518628" layer="-1.00" shape="543.19,625.14 541.64,606.03 517.90,607.94 518.54,615.84 524.78,615.35 525.41,623.21 529.04,622.92 529.22,625.23 533.06,624.92 533.14,625.95 538.21,625.54 543.19,625.14" type="building"/>
   <poly color="red" fill="1" id="110520669" layer="-1.00" shape="604.92,779.63 616.97,778.62 615.61,764.15 604.01,767.03 604.92,779.63" type="building"/>
   <poly color="red" fill="1" id="110520671" layer="-1.00" shape="706.47,795.47 719.95,794.49 718.81,778.93 718.63,776.60 705.15,777.58 705.88,787.43 706.47,795.47" type="building"/>
   <poly color="red" fill="1" id="110520673" layer="-1.00" shape="669.20,798.26 683.94,797.21 682.82,780.68 679.87,780.84 678.52,768.73 666.66,770.03 668.69,790.33 669.20,798.26" type="building"/>
   <poly color="red" fill="1" id="110520674" layer="-1.00" shape="621.03,675.07 630.56,674.35 630.71,674.35 642.14,673.48 641.21,661.23 631.79,661.97 629.92,662.10 627.51,662.28 627.26,660.18 623.40,660.51 623.61,662.57 620.11,662.82 621.03,675.07" type="building"/>
   <poly color="red" fill="1" id="110520675" layer="-1.00" shape="639.67,788.49 648.61,787.30 648.15,781.31 659.34,780.05 660.71,798.77 647.56,799.65 640.58,800.16 639.67,788.49" type="building"/>
   <poly color="red" fill="1" id="110520677" layer="-1.00" shape="626.45,801.25 625.82,793.17 624.29,773.51 638.04,772.45 639.00,784.86 634.38,785.22 634.66,788.88 639.67,788.49 640.58,800.16 626.45,801.25" type="building"/>
   <poly color="red" fill="1" id="110520678" layer="-1.00" shape="740.25,792.92 746.90,792.48 752.39,792.11 753.91,790.91 753.90,788.55 753.15,787.58 752.80,776.58 751.84,776.65 751.50,771.89 743.61,772.45 741.71,772.53 741.94,776.97 739.04,777.27 740.25,792.92" type="building"/>
   <poly color="red" fill="1" id="110520679" layer="-1.00" shape="642.72,768.07 657.14,766.75 655.95,753.80 666.63,752.82 676.76,751.91 679.73,751.64 678.67,739.59 674.14,739.98 662.32,741.10 652.59,741.98 640.51,743.01 642.16,761.96 642.56,766.32 642.72,768.07" type="building"/>
   <poly color="red" fill="1" id="110520681" layer="-1.00" shape="719.95,794.49 731.06,793.53 740.25,792.92 739.04,777.27 718.81,778.93 719.95,794.49" type="building"/>
   <poly color="red" fill="1" id="110520684" layer="-1.00" shape="683.94,797.21 701.35,796.04 700.81,788.11 699.63,770.61 687.03,771.46 687.64,780.37 682.82,780.68 683.94,797.21" type="building"/>
   <poly color="red" fill="1" id="110528304" layer="-1.00" shape="247.65,579.99 232.17,586.12 235.26,595.05 222.99,599.59 215.98,580.99 225.56,577.08 243.73,570.19 247.65,579.99" type="building"/>
   <poly color="red" fill="1" id="110528306" layer="-1.00" shape="257.08,647.61 259.27,653.34 263.91,651.57 265.02,654.46 271.08,652.17 269.29,647.46 273.36,645.91 271.87,642.00 257.08,647.61" type="building"/>
   <poly color="red" fill="1" id="110528307" layer="-1.00" shape="642.14,673.48 656.60,672.36 657.81,672.24 657.02,660.14 651.60,660.48 649.80,642.21 639.72,642.75 641.21,661.23 642.14,673.48" type="building"/>
   <poly color="red" fill="1" id="110528308" layer="-1.00" shape="664.93,687.77 667.03,687.59 680.87,686.48 682.14,700.90 675.52,701.45 668.45,702.01 666.01,702.20 664.93,687.77" type="building"/>
   <poly color="red" fill="1" id="110528309" layer="-1.00" shape="655.52,641.91 671.88,640.68 670.59,625.46 654.02,626.80 655.52,641.91" type="building"/>
   <poly color="red" fill="1" id="110528310" layer="-1.00" shape="707.26,751.67 718.18,750.82 718.85,759.27 729.07,758.47 727.68,740.87 719.54,741.50 718.92,733.73 712.76,734.21 713.44,742.50 706.58,743.04 707.26,751.67" type="building"/>