<?xml version="1.0" encoding="utf-8"?><!-- generated on 10/11/17 17:57:09 by SUMO netconvert Version 0.25.0
<?xml version="1.0" encoding="UTF-8"?>

<configuration xmlns:xsi="http://www.w3.org/2001/XMLSchema-instance" xsi:noNamespaceSchemaLocation="http://sumo.dlr.de/xsd/netconvertConfiguration.xsd">

    <input>
        <type-files value="osmNetconvert.typ.xml"/>
        <osm-files value="M_Schwabing_historical_800.osm"/>
    </input>

    <output>
        <output-file value="M_Schwabing_historical_800.net.xml"/>
    </output>

    <projection>
        <proj.utm value="true"/>
    </projection>

    <edge_removal>
        <remove-edges.by-type value="highway.track,highway.unsurfaced,highway.raceway,highway.bridleway,highway.path,highway.footway,highway.pedestrian,highway.cycleway,highway.step,highway.steps,highway.stairs,highway.bus_guideway,highway.ford,railway.rail,railway.tram,railway.light_rail,railway.subway,railway.preserved,railway.narrow_gauge,railway.monorail,railway.funicular"/>
    </edge_removal>

</configuration>
-->
<net version="0.25">
   <location convBoundary="0.00,0.00,806.37,819.38" netOffset="-691096.85,-5336624.41" origBoundary="11.569821,48.154072,11.580614,48.161289" projParameter="+proj=utm +zone=32 +ellps=WGS84 +datum=WGS84 +units=m +no_defs"/>
   <type allow="pedestrian" id="highway.bridleway" numLanes="1" oneway="1" priority="1" speed="2.78" width="2.00"/>
   <type allow="bus" id="highway.bus_guideway" numLanes="1" oneway="1" priority="1" speed="8.33"/>
   <type allow="bicycle" id="highway.cycleway" numLanes="1" oneway="0" priority="1" speed="5.56" width="1.00"/>
   <type allow="pedestrian" id="highway.footway" numLanes="1" oneway="1" priority="1" speed="8.33" width="2.00"/>
   <type allow="army" id="highway.ford" numLanes="1" oneway="0" priority="1" speed="2.78"/>
   <type disallow="tram rail_urban rail rail_electric ship" id="highway.living_street" numLanes="1" oneway="0" priority="3" speed="2.78"/>
   <type allow="private emergency authority army vip passenger hov taxi bus coach delivery truck trailer motorcycle evehicle custom1 custom2" id="highway.motorway" numLanes="2" oneway="1" priority="13" speed="44.44"/>
   <type allow="private emergency authority army vip passenger hov taxi bus coach delivery truck trailer motorcycle evehicle custom1 custom2" id="highway.motorway_link" numLanes="1" oneway="1" priority="12" speed="22.22"/>
   <type allow="bicycle pedestrian" id="highway.path" numLanes="1" oneway="1" priority="1" speed="2.78" width="2.00"/>
   <type allow="pedestrian" id="highway.pedestrian" numLanes="1" oneway="1" priority="1" speed="8.33" width="2.00"/>
   <type disallow="tram rail_urban rail rail_electric ship" id="highway.primary" numLanes="2" oneway="0" priority="9" speed="27.78"/>
   <type disallow="tram rail_urban rail rail_electric ship" id="highway.primary_link" numLanes="1" oneway="0" priority="8" speed="22.22"/>
   <type allow="vip" id="highway.raceway" numLanes="2" oneway="0" priority="14" speed="83.33"/>
   <type disallow="tram rail_urban rail rail_electric ship" id="highway.residential" numLanes="1" oneway="0" priority="4" speed="13.89"/>
   <type disallow="tram rail_urban rail rail_electric ship" id="highway.secondary" numLanes="2" oneway="0" priority="7" speed="27.78"/>
   <type disallow="tram rail_urban rail rail_electric ship" id="highway.secondary_link" numLanes="1" oneway="0" priority="6" speed="22.22"/>
   <type allow="delivery bicycle pedestrian" id="highway.service" numLanes="1" oneway="0" priority="2" speed="5.56"/>
   <type disallow="tram rail_urban rail rail_electric ship" id="highway.services" numLanes="1" oneway="0" priority="1" speed="8.33"/>
   <type allow="pedestrian" id="highway.stairs" numLanes="1" oneway="1" priority="1" speed="1.39" width="2.00"/>
   <type allow="pedestrian" id="highway.step" numLanes="1" oneway="1" priority="1" speed="1.39" width="2.00"/>
   <type allow="pedestrian" id="highway.steps" numLanes="1" oneway="1" priority="1" speed="1.39" width="2.00"/>
   <type disallow="tram rail_urban rail rail_electric ship" id="highway.tertiary" numLanes="1" oneway="0" priority="6" speed="22.22"/>
   <type disallow="tram rail_urban rail rail_electric ship" id="highway.tertiary_link" numLanes="1" oneway="0" priority="5" speed="22.22"/>
   <type disallow="tram rail_urban rail rail_electric ship" id="highway.track" numLanes="1" oneway="0" priority="1" speed="5.56"/>
   <type disallow="tram rail_urban rail rail_electric bicycle pedestrian ship" id="highway.trunk" numLanes="2" oneway="0" priority="11" speed="27.78"/>
   <type disallow="tram rail_urban rail rail_electric bicycle pedestrian ship" id="highway.trunk_link" numLanes="1" oneway="0" priority="10" speed="22.22"/>
   <type disallow="tram rail_urban rail rail_electric ship" id="highway.unclassified" numLanes="1" oneway="0" priority="5" speed="13.89"/>
   <type disallow="tram rail_urban rail rail_electric ship" id="highway.unsurfaced" numLanes="1" oneway="0" priority="1" speed="8.33"/>
   <type allow="rail_urban" id="railway.light_rail" numLanes="1" oneway="1" priority="15" speed="27.78"/>
   <type allow="rail" id="railway.preserved" numLanes="1" oneway="1" priority="15" speed="27.78"/>
   <type allow="rail rail_electric" id="railway.rail" numLanes="1" oneway="1" priority="15" speed="83.33"/>
   <type allow="rail_urban" id="railway.subway" numLanes="1" oneway="1" priority="15" speed="27.78"/>
   <type allow="tram" id="railway.tram" numLanes="1" oneway="1" priority="15" speed="13.89"/>
   <edge function="internal" id=":1039459577_0">
      <lane disallow="tram rail_urban rail rail_electric ship" id=":1039459577_0_0" index="0" length="0.10" shape="449.87,390.56 449.88,390.55" speed="8.33"/>
   </edge>
   <edge function="internal" id=":1039459577_1">
      <lane disallow="tram rail_urban rail rail_electric ship" id=":1039459577_1_0" index="0" length="2.41" shape="449.87,390.56 448.87,391.66 447.99,391.94" speed="8.33"/>
   </edge>
   <edge function="internal" id=":1039459577_4">
      <lane id=":1039459577_4_0" index="0" length="2.41" shape="447.99,391.94 447.24,391.40 446.61,390.05" speed="8.33"/>
   </edge>
   <edge function="internal" id=":1039459577_2">
      <lane disallow="tram rail_urban rail rail_electric ship" id=":1039459577_2_0" index="0" length="0.10" shape="446.61,390.05 446.61,390.05" speed="8.33"/>
   </edge>
   <edge function="internal" id=":1039459577_3">
      <lane disallow="tram rail_urban rail rail_electric ship" id=":1039459577_3_0" index="0" length="2.41" shape="446.61,390.05 447.62,388.95 448.49,388.67" speed="8.33"/>
   </edge>
   <edge function="internal" id=":1039459577_5">
      <lane id=":1039459577_5_0" index="0" length="2.41" shape="448.49,388.67 449.25,389.20 449.88,390.55" speed="8.33"/>
   </edge>
   <edge function="internal" id=":1039459595_0">
      <lane disallow="tram rail_urban rail rail_electric ship" id=":1039459595_0_0" index="0" length="0.10" shape="430.00,156.44 430.01,156.37" speed="13.89"/>
      <lane disallow="tram rail_urban rail rail_electric ship" id=":1039459595_0_1" index="1" length="0.10" shape="426.73,155.97 426.73,155.95" speed="13.89"/>
   </edge>
   <edge function="internal" id=":1039459595_2">
      <lane disallow="tram rail_urban rail rail_electric ship" id=":1039459595_2_0" index="0" length="2.41" shape="426.73,155.97 425.74,157.08 424.86,157.37" speed="13.89"/>
   </edge>
   <edge function="internal" id=":1039459595_6">
      <lane id=":1039459595_6_0" index="0" length="2.41" shape="424.86,157.37 424.11,156.85 423.46,155.50" speed="13.89"/>
   </edge>
   <edge function="internal" id=":1039459595_3">
      <lane disallow="tram rail_urban rail rail_electric ship" id=":1039459595_3_0" index="0" length="0.10" shape="420.20,155.04 420.20,155.03" speed="13.89"/>
      <lane disallow="tram rail_urban rail rail_electric ship" id=":1039459595_3_1" index="1" length="0.10" shape="423.46,155.51 423.46,155.50" speed="13.89"/>
   </edge>
   <edge function="internal" id=":1039459595_5">
      <lane disallow="tram rail_urban rail rail_electric ship" id=":1039459595_5_0" index="0" length="2.41" shape="423.46,155.51 424.45,154.39 425.32,154.09" speed="13.89"/>
   </edge>
   <edge function="internal" id=":1039459595_7">
      <lane id=":1039459595_7_0" index="0" length="2.41" shape="425.32,154.09 426.08,154.61 426.73,155.95" speed="13.89"/>
   </edge>
   <edge function="internal" id=":1078797514_0">
      <lane disallow="tram rail_urban rail rail_electric ship" id=":1078797514_0_0" index="0" length="7.40" shape="412.91,612.44 411.76,619.75" speed="11.11"/>
   </edge>
   <edge function="internal" id=":1078797514_1">
      <lane disallow="tram rail_urban rail rail_electric ship" id=":1078797514_1_0" index="0" length="3.08" shape="412.91,612.44 411.88,613.52 410.99,613.78 410.45,613.37" speed="8.33"/>
   </edge>
   <edge function="internal" id=":1078797514_4">
      <lane id=":1078797514_4_0" index="0" length="1.74" shape="410.45,613.37 410.25,613.22 409.66,611.86" speed="8.33"/>
   </edge>
   <edge function="internal" id=":1078797514_2">
      <lane disallow="tram rail_urban rail rail_electric ship" id=":1078797514_2_0" index="0" length="7.03" shape="404.99,617.11 409.66,611.86" speed="11.11"/>
   </edge>
   <edge function="internal" id=":1078797514_3">
      <lane disallow="tram rail_urban rail rail_electric ship" id=":1078797514_3_0" index="0" length="6.65" shape="404.99,617.11 406.84,616.05 408.04,616.06 408.59,617.12 408.50,619.24" speed="13.89"/>
   </edge>
   <edge function="internal" id=":1078797527_0">
      <lane disallow="tram rail_urban rail rail_electric ship" id=":1078797527_0_0" index="0" length="9.70" shape="380.69,616.18 382.49,618.16 384.29,619.61 386.10,620.51 387.92,620.88" speed="13.89"/>
      <lane disallow="tram rail_urban rail rail_electric ship" id=":1078797527_0_1" index="1" length="9.70" shape="378.83,619.14 380.80,621.24 382.95,622.77 385.26,623.75 387.73,624.18" speed="13.89"/>
   </edge>
   <edge function="internal" id=":1078797527_2">
      <lane disallow="tram rail_urban rail rail_electric ship" id=":1078797527_2_0" index="0" length="9.72" shape="378.25,624.18 380.78,622.35 382.71,621.29 384.83,620.85 387.92,620.88" speed="20.83"/>
      <lane disallow="tram rail_urban rail rail_electric ship" id=":1078797527_2_1" index="1" length="9.72" shape="379.47,627.38 387.73,624.18" speed="20.83"/>
   </edge>
   <edge function="internal" id=":1078797528_0">
      <lane disallow="tram rail_urban rail rail_electric ship" id=":1078797528_0_0" index="0" length="9.45" shape="554.11,618.08 553.38,608.66" speed="8.33"/>
   </edge>
   <edge function="internal" id=":1078797528_1">
      <lane allow="delivery bicycle pedestrian" id=":1078797528_1_0" index="0" length="5.12" shape="554.11,618.08 554.31,615.29 555.36,613.22" speed="6.95"/>
   </edge>
   <edge function="internal" id=":1078797528_2">
      <lane disallow="tram rail_urban rail rail_electric ship" id=":1078797528_2_0" index="0" length="2.41" shape="554.11,618.08 554.84,616.78 555.64,616.31" speed="8.33"/>
   </edge>
   <edge function="internal" id=":1078797528_9">
      <lane id=":1078797528_9_0" index="0" length="5.18" shape="555.36,613.22 557.27,611.85 560.03,611.20" speed="6.95"/>
   </edge>
   <edge function="internal" id=":1078797528_10">
      <lane id=":1078797528_10_0" index="0" length="2.41" shape="555.64,616.31 556.49,616.66 557.40,617.84" speed="8.33"/>
   </edge>
   <edge function="internal" id=":1078797528_3">
      <lane disallow="tram rail_urban rail rail_electric ship" id=":1078797528_3_0" index="0" length="5.06" shape="560.33,614.48 558.97,614.80 558.02,615.47 557.50,616.48 557.40,617.84" speed="6.95"/>
   </edge>
   <edge function="internal" id=":1078797528_4">
      <lane disallow="tram rail_urban rail rail_electric ship" id=":1078797528_4_0" index="0" length="10.37" shape="560.33,614.48 557.49,614.34 555.38,613.33 554.01,611.43 553.38,608.66" speed="6.95"/>
   </edge>
   <edge function="internal" id=":1078797528_5">
      <lane allow="delivery bicycle pedestrian" id=":1078797528_5_0" index="0" length="4.82" shape="560.33,614.48 559.02,613.78 558.54,612.99 558.87,612.13 560.03,611.20" speed="5.56"/>
   </edge>
   <edge function="internal" id=":1078797528_6">
      <lane allow="delivery bicycle pedestrian" id=":1078797528_6_0" index="0" length="5.01" shape="556.66,608.38 556.97,609.72 557.63,610.64 558.65,611.13 560.03,611.20" speed="6.95"/>
   </edge>
   <edge function="internal" id=":1078797528_7">
      <lane disallow="tram rail_urban rail rail_electric ship" id=":1078797528_7_0" index="0" length="9.48" shape="556.66,608.38 557.40,617.84" speed="8.33"/>
   </edge>
   <edge function="internal" id=":1078797528_8">
      <lane disallow="tram rail_urban rail rail_electric ship" id=":1078797528_8_0" index="0" length="2.41" shape="556.66,608.38 555.94,609.68 555.16,610.16" speed="8.33"/>
   </edge>
   <edge function="internal" id=":1078797528_11">
      <lane id=":1078797528_11_0" index="0" length="2.41" shape="555.16,610.16 554.30,609.82 553.38,608.66" speed="8.33"/>
   </edge>
   <edge function="internal" id=":1078797531_0">
      <lane disallow="tram rail_urban rail rail_electric ship" id=":1078797531_0_0" index="0" length="0.47" shape="323.01,398.82 323.06,399.04" speed="8.33"/>
      <lane disallow="tram rail_urban rail rail_electric ship" id=":1078797531_0_1" index="1" length="0.47" shape="319.75,399.33 319.91,400.02" speed="8.33"/>
   </edge>
   <edge function="internal" id=":1078797560_0">
      <lane disallow="tram rail_urban rail rail_electric ship" id=":1078797560_0_0" index="0" length="5.78" shape="392.44,621.14 398.20,620.74" speed="13.89"/>
   </edge>
   <edge function="internal" id=":1078797560_1">
      <lane disallow="tram rail_urban rail rail_electric ship" id=":1078797560_1_0" index="0" length="4.46" shape="392.25,624.44 397.09,625.08" speed="13.89"/>
      <lane disallow="tram rail_urban rail rail_electric ship" id=":1078797560_1_1" index="1" length="4.46" shape="392.25,624.44 394.86,627.52" speed="13.89"/>
   </edge>
   <edge function="internal" id=":1078797579_0">
      <lane disallow="tram rail_urban rail rail_electric ship" id=":1078797579_0_0" index="0" length="0.10" shape="439.48,409.65 439.45,409.65" speed="13.89"/>
   </edge>
   <edge function="internal" id=":1078797579_1">
      <lane disallow="tram rail_urban rail rail_electric ship" id=":1078797579_1_0" index="0" length="2.41" shape="439.48,409.65 438.29,408.76 437.93,407.91" speed="13.89"/>
   </edge>
   <edge function="internal" id=":1078797579_6">
      <lane id=":1078797579_6_0" index="0" length="2.41" shape="437.93,407.91 438.40,407.11 439.68,406.36" speed="13.89"/>
   </edge>
   <edge function="internal" id=":1078797579_2">
      <lane disallow="tram rail_urban rail rail_electric ship" id=":1078797579_2_0" index="0" length="0.10" shape="440.11,399.77 440.23,399.78" speed="13.89"/>
      <lane disallow="tram rail_urban rail rail_electric ship" id=":1078797579_2_1" index="1" length="0.10" shape="439.98,403.07 439.89,403.07" speed="13.89"/>
      <lane disallow="tram rail_urban rail rail_electric ship" id=":1078797579_2_2" index="2" length="0.10" shape="439.71,406.36 439.68,406.36" speed="13.89"/>
   </edge>
   <edge function="internal" id=":1078797579_5">
      <lane disallow="tram rail_urban rail rail_electric ship" id=":1078797579_5_0" index="0" length="2.41" shape="439.71,406.36 440.88,407.29 441.23,408.14" speed="13.89"/>
   </edge>
   <edge function="internal" id=":1078797579_7">
      <lane id=":1078797579_7_0" index="0" length="2.41" shape="441.23,408.14 440.75,408.93 439.45,409.65" speed="13.89"/>
   </edge>
   <edge function="internal" id=":1078797582_0">
      <lane disallow="tram rail_urban rail rail_electric ship" id=":1078797582_0_0" index="0" length="5.00" shape="410.16,630.00 409.49,634.98" speed="13.89"/>
      <lane disallow="tram rail_urban rail rail_electric ship" id=":1078797582_0_1" index="1" length="5.00" shape="406.90,629.49 406.24,634.43" speed="13.89"/>
   </edge>
   <edge function="internal" id=":1078797582_2">
      <lane disallow="tram rail_urban rail rail_electric ship" id=":1078797582_2_0" index="0" length="8.99" shape="402.51,630.07 405.48,632.72 407.64,634.42 408.97,635.17 409.49,634.98" speed="13.89"/>
      <lane disallow="tram rail_urban rail rail_electric ship" id=":1078797582_2_1" index="1" length="8.99" shape="398.92,631.25 401.93,633.80 404.15,635.18 405.59,635.39 406.24,634.43" speed="13.89"/>
   </edge>
   <edge function="internal" id=":1078797615_0">
      <lane disallow="tram rail_urban rail rail_electric ship" id=":1078797615_0_0" index="0" length="4.15" shape="377.86,601.36 375.14,604.20" speed="13.89"/>
      <lane disallow="tram rail_urban rail rail_electric ship" id=":1078797615_0_1" index="1" length="4.15" shape="374.57,601.10 371.72,604.41" speed="13.89"/>
   </edge>
   <edge function="internal" id=":1078797615_2">
      <lane disallow="tram rail_urban rail rail_electric ship" id=":1078797615_2_0" index="0" length="0.65" shape="374.57,601.10 374.17,601.61" speed="13.89"/>
   </edge>
   <edge function="internal" id=":1078797615_6">
      <lane id=":1078797615_6_0" index="0" length="4.17" shape="374.17,601.61 373.65,602.26 372.79,602.61 372.00,602.13 371.28,600.83" speed="13.89"/>
   </edge>
   <edge function="internal" id=":1078797615_3">
      <lane disallow="tram rail_urban rail rail_electric ship" id=":1078797615_3_0" index="0" length="10.88" shape="370.92,604.68 371.56,600.91 372.48,599.58 373.67,600.67 375.14,604.20" speed="13.89"/>
   </edge>
   <edge function="internal" id=":1078797615_4">
      <lane disallow="tram rail_urban rail rail_electric ship" id=":1078797615_4_0" index="0" length="4.75" shape="370.92,604.68 367.99,600.57" speed="13.89"/>
      <lane disallow="tram rail_urban rail rail_electric ship" id=":1078797615_4_1" index="1" length="4.75" shape="374.30,604.12 371.28,600.83" speed="13.89"/>
   </edge>
   <edge function="internal" id=":1078797635_0">
      <lane disallow="tram rail_urban rail rail_electric ship" id=":1078797635_0_0" index="0" length="0.10" shape="151.62,448.53 151.62,448.53" speed="8.33"/>
   </edge>
   <edge function="internal" id=":1078797635_1">
      <lane disallow="tram rail_urban rail rail_electric ship" id=":1078797635_1_0" index="0" length="2.41" shape="151.62,448.53 151.94,447.08 152.55,446.39" speed="8.33"/>
   </edge>
   <edge function="internal" id=":1078797635_4">
      <lane id=":1078797635_4_0" index="0" length="2.41" shape="152.55,446.39 153.47,446.47 154.69,447.32" speed="8.33"/>
   </edge>
   <edge function="internal" id=":1078797635_2">
      <lane disallow="tram rail_urban rail rail_electric ship" id=":1078797635_2_0" index="0" length="0.10" shape="154.69,447.32 154.69,447.32" speed="8.33"/>
   </edge>
   <edge function="internal" id=":1078797635_3">
      <lane disallow="tram rail_urban rail rail_electric ship" id=":1078797635_3_0" index="0" length="2.41" shape="154.69,447.32 154.38,448.78 153.76,449.46" speed="8.33"/>
   </edge>
   <edge function="internal" id=":1078797635_5">
      <lane id=":1078797635_5_0" index="0" length="2.41" shape="153.76,449.46 152.84,449.38 151.62,448.53" speed="8.33"/>
   </edge>
   <edge function="internal" id=":1088755386_0">
      <lane disallow="tram rail_urban rail rail_electric ship" id=":1088755386_0_0" index="0" length="0.10" shape="53.77,505.40 53.77,505.40" speed="8.33"/>
   </edge>
   <edge function="internal" id=":1088755386_1">
      <lane disallow="tram rail_urban rail rail_electric ship" id=":1088755386_1_0" index="0" length="2.41" shape="53.77,505.40 54.07,503.94 54.68,503.25" speed="8.33"/>
   </edge>
   <edge function="internal" id=":1088755386_4">
      <lane id=":1088755386_4_0" index="0" length="2.41" shape="54.68,503.25 55.60,503.32 56.83,504.16" speed="8.33"/>
   </edge>
   <edge function="internal" id=":1088755386_2">
      <lane disallow="tram rail_urban rail rail_electric ship" id=":1088755386_2_0" index="0" length="0.10" shape="56.83,504.16 56.83,504.16" speed="8.33"/>
   </edge>
   <edge function="internal" id=":1088755386_3">
      <lane disallow="tram rail_urban rail rail_electric ship" id=":1088755386_3_0" index="0" length="2.41" shape="56.83,504.16 56.53,505.62 55.92,506.31" speed="8.33"/>
   </edge>
   <edge function="internal" id=":1088755386_5">
      <lane id=":1088755386_5_0" index="0" length="2.41" shape="55.92,506.31 55.00,506.24 53.77,505.40" speed="8.33"/>
   </edge>
   <edge function="internal" id=":1088755443_0">
      <lane disallow="tram rail_urban rail rail_electric ship" id=":1088755443_0_0" index="0" length="0.10" shape="158.26,465.60 158.26,465.60" speed="8.33"/>
   </edge>
   <edge function="internal" id=":1088755443_1">
      <lane disallow="tram rail_urban rail rail_electric ship" id=":1088755443_1_0" index="0" length="2.41" shape="158.26,465.60 158.59,464.15 159.21,463.47" speed="8.33"/>
   </edge>
   <edge function="internal" id=":1088755443_4">
      <lane id=":1088755443_4_0" index="0" length="2.41" shape="159.21,463.47 160.13,463.56 161.34,464.41" speed="8.33"/>
   </edge>
   <edge function="internal" id=":1088755443_2">
      <lane disallow="tram rail_urban rail rail_electric ship" id=":1088755443_2_0" index="0" length="0.10" shape="161.34,464.41 161.34,464.41" speed="8.33"/>
   </edge>
   <edge function="internal" id=":1088755443_3">
      <lane disallow="tram rail_urban rail rail_electric ship" id=":1088755443_3_0" index="0" length="2.41" shape="161.34,464.41 161.01,465.87 160.39,466.55" speed="8.33"/>
   </edge>
   <edge function="internal" id=":1088755443_5">
      <lane id=":1088755443_5_0" index="0" length="2.41" shape="160.39,466.55 159.47,466.46 158.26,465.60" speed="8.33"/>
   </edge>
   <edge function="internal" id=":1088755465_0">
      <lane disallow="tram rail_urban rail rail_electric ship" id=":1088755465_0_0" index="0" length="0.11" shape="264.48,430.14 264.46,430.03" speed="8.33"/>
   </edge>
   <edge function="internal" id=":1088755465_1">
      <lane disallow="tram rail_urban rail rail_electric ship" id=":1088755465_1_0" index="0" length="2.41" shape="264.48,430.14 265.05,428.76 265.78,428.20" speed="8.33"/>
   </edge>
   <edge function="internal" id=":1088755465_4">
      <lane id=":1088755465_4_0" index="0" length="2.41" shape="265.78,428.20 266.67,428.45 267.72,429.50" speed="8.33"/>
   </edge>
   <edge function="internal" id=":1088755465_2">
      <lane disallow="tram rail_urban rail rail_electric ship" id=":1088755465_2_0" index="0" length="0.33" shape="267.65,429.18 267.72,429.50" speed="8.33"/>
   </edge>
   <edge function="internal" id=":1088755465_3">
      <lane disallow="tram rail_urban rail rail_electric ship" id=":1088755465_3_0" index="0" length="2.41" shape="267.65,429.18 267.17,430.59 266.48,431.20" speed="8.33"/>
   </edge>
   <edge function="internal" id=":1088755465_5">
      <lane id=":1088755465_5_0" index="0" length="2.41" shape="266.48,431.20 265.57,431.01 264.46,430.03" speed="8.33"/>
   </edge>
   <edge function="internal" id=":1159881603_0">
      <lane disallow="tram rail_urban rail rail_electric ship" id=":1159881603_0_0" index="0" length="5.11" shape="368.11,638.69 368.17,634.48" speed="13.89"/>
      <lane disallow="tram rail_urban rail rail_electric ship" id=":1159881603_0_1" index="1" length="5.11" shape="368.11,638.69 371.55,633.77" speed="13.89"/>
   </edge>
   <edge function="internal" id=":1159881603_2">
      <lane disallow="tram rail_urban rail rail_electric ship" id=":1159881603_2_0" index="0" length="5.06" shape="371.41,638.62 370.21,632.75" speed="20.83"/>
      <lane disallow="tram rail_urban rail rail_electric ship" id=":1159881603_2_1" index="1" length="5.06" shape="371.41,638.62 372.84,634.75" speed="20.83"/>
   </edge>
   <edge function="internal" id=":1246577026_0">
      <lane allow="delivery bicycle pedestrian" id=":1246577026_0_0" index="0" length="4.82" shape="237.39,509.93 237.90,508.53 238.60,507.93 239.50,508.14 240.60,509.14" speed="5.56"/>
   </edge>
   <edge function="internal" id=":1246577070_0">
      <lane allow="delivery bicycle pedestrian" id=":1246577070_0_0" index="0" length="5.21" shape="274.37,527.24 274.09,525.93 273.41,524.99 272.33,524.42 270.86,524.23" speed="6.95"/>
   </edge>
   <edge function="internal" id=":1246577070_1">
      <lane disallow="tram rail_urban rail rail_electric ship" id=":1246577070_1_0" index="0" length="9.49" shape="274.37,527.24 273.91,517.77" speed="8.33"/>
   </edge>
   <edge function="internal" id=":1246577070_2">
      <lane disallow="tram rail_urban rail rail_electric ship" id=":1246577070_2_0" index="0" length="2.41" shape="274.37,527.24 275.13,525.96 275.93,525.51" speed="8.33"/>
   </edge>
   <edge function="internal" id=":1246577070_9">
      <lane id=":1246577070_9_0" index="0" length="2.41" shape="275.93,525.51 276.77,525.87 277.67,527.06" speed="8.33"/>
   </edge>
   <edge function="internal" id=":1246577070_3">
      <lane disallow="tram rail_urban rail rail_electric ship" id=":1246577070_3_0" index="0" length="9.44" shape="277.21,517.63 277.67,527.06" speed="8.33"/>
   </edge>
   <edge function="internal" id=":1246577070_4">
      <lane allow="delivery bicycle pedestrian" id=":1246577070_4_0" index="0" length="5.28" shape="277.21,517.63 276.92,520.52 275.76,522.59" speed="6.95"/>
   </edge>
   <edge function="internal" id=":1246577070_5">
      <lane disallow="tram rail_urban rail rail_electric ship" id=":1246577070_5_0" index="0" length="2.41" shape="277.21,517.63 276.44,518.90 275.63,519.35" speed="8.33"/>
   </edge>
   <edge function="internal" id=":1246577070_10">
      <lane id=":1246577070_10_0" index="0" length="5.28" shape="275.76,522.59 273.74,523.82 270.86,524.23" speed="6.95"/>
   </edge>
   <edge function="internal" id=":1246577070_11">
      <lane id=":1246577070_11_0" index="0" length="2.41" shape="275.63,519.35 274.79,518.97 273.91,517.77" speed="8.33"/>
   </edge>
   <edge function="internal" id=":1246577070_6">
      <lane disallow="tram rail_urban rail rail_electric ship" id=":1246577070_6_0" index="0" length="5.05" shape="270.87,520.93 272.25,520.74 273.22,520.14 273.77,519.16 273.91,517.77" speed="6.95"/>
   </edge>
   <edge function="internal" id=":1246577070_7">
      <lane disallow="tram rail_urban rail rail_electric ship" id=":1246577070_7_0" index="0" length="10.31" shape="270.87,520.93 273.72,521.32 275.80,522.47 277.11,524.39 277.67,527.06" speed="6.95"/>
   </edge>
   <edge function="internal" id=":1246577070_8">
      <lane allow="delivery bicycle pedestrian" id=":1246577070_8_0" index="0" length="4.82" shape="270.87,520.93 272.11,521.76 272.52,522.58 272.10,523.41 270.86,524.23" speed="5.56"/>
   </edge>
   <edge function="internal" id=":1246577110_0">
      <lane allow="delivery bicycle pedestrian" id=":1246577110_0_0" index="0" length="0.10" shape="265.99,524.22 266.04,524.22" speed="5.56"/>
   </edge>
   <edge function="internal" id=":1246577110_1">
      <lane allow="delivery bicycle pedestrian" id=":1246577110_1_0" index="0" length="2.41" shape="265.99,524.22 264.75,523.39 264.34,522.56" speed="5.56"/>
   </edge>
   <edge function="internal" id=":1246577110_4">
      <lane id=":1246577110_4_0" index="0" length="2.41" shape="264.34,522.56 264.76,521.74 266.00,520.92" speed="5.56"/>
   </edge>
   <edge function="internal" id=":1246577110_2">
      <lane allow="delivery bicycle pedestrian" id=":1246577110_2_0" index="0" length="0.10" shape="265.97,520.92 266.00,520.92" speed="5.56"/>
   </edge>
   <edge function="internal" id=":1246577110_3">
      <lane allow="delivery bicycle pedestrian" id=":1246577110_3_0" index="0" length="2.41" shape="265.97,520.92 267.23,521.71 267.66,522.53" speed="5.56"/>
   </edge>
   <edge function="internal" id=":1246577110_5">
      <lane id=":1246577110_5_0" index="0" length="2.41" shape="267.66,522.53 267.26,523.36 266.04,524.22" speed="5.56"/>
   </edge>
   <edge function="internal" id=":1246577150_0">
      <lane allow="delivery bicycle pedestrian" id=":1246577150_0_0" index="0" length="5.18" shape="104.69,536.83 99.51,536.96" speed="5.56"/>
   </edge>
   <edge function="internal" id=":1246577150_1">
      <lane allow="delivery bicycle pedestrian" id=":1246577150_1_0" index="0" length="13.81" shape="104.69,536.83 100.86,535.91 98.47,534.02 97.54,531.18 98.05,527.38" speed="5.56"/>
   </edge>
   <edge function="internal" id=":1246577150_2">
      <lane allow="delivery bicycle pedestrian" id=":1246577150_2_0" index="0" length="5.28" shape="104.69,536.83 103.12,536.41 102.40,535.70 102.54,534.69 103.54,533.40" speed="5.56"/>
   </edge>
   <edge function="internal" id=":1246577150_3">
      <lane allow="delivery bicycle pedestrian" id=":1246577150_3_0" index="0" length="5.75" shape="100.91,529.38 100.68,531.00 101.04,532.22 101.99,533.02 103.54,533.40" speed="5.56"/>
   </edge>
   <edge function="internal" id=":1246577150_4">
      <lane allow="delivery bicycle pedestrian" id=":1246577150_4_0" index="0" length="7.86" shape="100.91,529.38 99.96,532.81 99.42,535.22 99.26,536.60 99.51,536.96" speed="5.56"/>
   </edge>
   <edge function="internal" id=":1246577150_5">
      <lane allow="delivery bicycle pedestrian" id=":1246577150_5_0" index="0" length="5.09" shape="100.91,529.38 99.45,529.95 98.48,529.81 98.02,528.95 98.05,527.38" speed="5.56"/>
   </edge>
   <edge function="internal" id=":1246577150_6">
      <lane allow="delivery bicycle pedestrian" id=":1246577150_6_0" index="0" length="7.52" shape="98.40,533.85 97.45,533.78 97.07,532.67 97.28,530.54 98.05,527.38" speed="5.56"/>
   </edge>
   <edge function="internal" id=":1246577150_7">
      <lane allow="delivery bicycle pedestrian" id=":1246577150_7_0" index="0" length="5.15" shape="98.40,533.85 103.54,533.40" speed="5.56"/>
   </edge>
   <edge function="internal" id=":1246577150_8">