<?xml version="1.0" encoding="utf-8"?><!-- generated on 10/11/17 17:55:58 by SUMO polyconvert Version 0.25.0
<?xml version="1.0" encoding="UTF-8"?>

<configuration xmlns:xsi="http://www.w3.org/2001/XMLSchema-instance" xsi:noNamespaceSchemaLocation="http://sumo.dlr.de/xsd/polyconvertConfiguration.xsd">

    <input>
        <net-file value="MA_GartenStd_urban_800.net.xml"/>
        <osm-files value="MA_GartenStd_urban_800.osm"/>
        <type-file value="osmPolyconvert.typ.xml"/>
    </input>

    <output>
        <output-file value="MA_GartenStd_urban_800.poly.xml"/>
    </output>

    <projection>
        <proj.utm value="true"/>
    </projection>

    <processing>
        <poi-layer-offset value="5"/>
    </processing>

</configuration>
-->
<additional>
   <location convBoundary="-0.33,-18.13,813.75,794.64" netOffset="-463347.03,-5486123.93" origBoundary="8.493501,49.526500,8.504695,49.533791" projParameter="+proj=utm +zone=32 +ellps=WGS84 +datum=WGS84 +units=m +no_defs"/>
   <poly color="red" fill="1" id="130785875" layer="-1.00" shape="490.08,410.33 481.14,415.15 484.35,421.10 491.36,417.33 493.30,416.28 490.08,410.33" type="building"/>
   <poly color="red" fill="1" id="146227197" layer="-1.00" shape="126.96,-8.66 132.47,0.25 124.43,5.19 118.92,-3.72 126.96,-8.66" type="building"/>
   <poly color="red" fill="0" id="146227198" layer="-1.00" shape="147.01,-3.86 139.24,0.75 131.97,-11.40" type="building"/>
   <poly color="red" fill="0" id="146227199" layer="-1.00" shape="160.16,-11.76 151.28,-6.60" type="building"/>
   <poly color="red" fill="1" id="146227215" layer="-1.00" shape="2.86,71.50" type="building"/>
   <poly color="235,235,227" fill="0" id="159226581" layer="-3.00" shape="58.07,792.08 68.16,748.03 70.54,738.52" type="residential"/>
   <poly color="237,199,199" fill="1" id="159226781" layer="-1.00" shape="282.81,687.29 295.35,710.95 318.52,752.61 267.02,784.27 423.92,608.45 282.81,687.29" type="amenity"/>
   <poly color="194,194,130" fill="1" id="159226782" layer="-3.00" shape="445.42,637.30 501.01,604.59 605.00,780.01 445.42,637.30" type="landuse"/>
   <poly color="red" fill="1" id="159226916" layer="-1.00" shape="429.42,695.14 461.00,677.49 443.96,647.21 412.39,664.86 429.42,695.14" type="building"/>
   <poly color="red" fill="1" id="162614704" layer="-1.00" shape="368.78,743.47 383.81,735.17 379.72,727.82 377.34,729.13 375.86,726.49 376.74,726.00 374.30,721.58 362.24,728.23 364.69,732.66 365.53,732.20 366.96,734.77 364.66,736.04 368.78,743.47" type="building"/>
   <poly color="red" fill="1" id="162614710" layer="-1.00" shape="270.71,757.56 276.02,766.59 281.04,762.83 284.54,758.37 286.62,753.13 287.40,747.59 287.25,740.14 285.19,735.12 282.05,731.03 279.42,729.13 275.27,727.95 272.04,728.47 270.53,729.29 261.18,734.38 250.76,715.62 247.92,713.63 245.60,713.15 242.67,714.18 240.66,715.79 239.67,717.91 240.00,721.23 252.67,744.61 257.09,742.15 260.67,748.48 256.05,751.12 263.91,765.06 271.35,761.08 269.41,758.08 270.71,757.56" type="building"/>
   <poly color="red" fill="1" id="162614714" layer="-1.00" shape="263.24,447.19 270.47,443.24 266.33,435.69 259.10,439.64 263.24,447.19" type="building"/>
   <poly color="red" fill="1" id="162614719" layer="-1.00" shape="399.25,706.23 408.68,701.03 401.72,688.54 392.52,693.69 399.25,706.23" type="building"/>
   <poly color="red" fill="1" id="162614725" layer="-1.00" shape="366.89,478.02 374.16,474.03 369.50,465.55 362.23,469.53 366.89,478.02" type="building"/>
   <poly color="red" fill="1" id="162614726" layer="-1.00" shape="320.14,503.68 327.27,499.78 322.55,491.20 315.43,495.09 320.14,503.68" type="building"/>
   <poly color="red" fill="1" id="162614730" layer="-1.00" shape="335.57,741.41 328.89,729.60 319.35,734.88 326.07,746.75 335.57,741.41" type="building"/>
   <poly color="red" fill="1" id="162614733" layer="-1.00" shape="329.86,410.73 337.30,406.66 333.05,398.94 325.61,403.01 329.86,410.73" type="building"/>
   <poly color="red" fill="1" id="162614736" layer="-1.00" shape="340.06,492.65 347.31,488.69 342.75,480.39 335.50,484.36 340.06,492.65" type="building"/>
   <poly color="red" fill="1" id="162614737" layer="-1.00" shape="331.37,438.39 335.37,445.67 343.67,441.14 339.67,433.86 331.37,438.39" type="building"/>
   <poly color="red" fill="1" id="162614742" layer="-1.00" shape="307.67,510.60 315.04,506.57 310.48,498.26 303.11,502.29 307.67,510.60" type="building"/>
   <poly color="red" fill="1" id="162614748" layer="-1.00" shape="359.62,481.99 366.89,478.02 362.23,469.53 354.95,473.50 359.62,481.99" type="building"/>
   <poly color="red" fill="1" id="162614750" layer="-1.00" shape="339.11,692.82 355.71,683.74 346.71,667.40 330.12,676.47 339.11,692.82" type="building"/>
   <poly color="red" fill="1" id="162614752" layer="-1.00" shape="322.41,414.81 329.86,410.73 325.61,403.01 318.16,407.08 322.41,414.81" type="building"/>
   <poly color="red" fill="1" id="162614754" layer="-1.00" shape="64.84,560.70 72.26,574.19 80.62,569.62 73.20,556.13 64.84,560.70" type="building"/>
   <poly color="red" fill="1" id="162614755" layer="-1.00" shape="275.19,509.63 281.42,506.24 284.38,511.63 285.38,511.08 287.63,515.18 280.40,519.13 275.19,509.63" type="building"/>
   <poly color="red" fill="1" id="162614757" layer="-1.00" shape="300.31,514.63 307.67,510.60 303.11,502.29 295.74,506.31 300.31,514.63" type="building"/>
   <poly color="red" fill="1" id="162614762" layer="-1.00" shape="283.15,436.37 290.48,432.37 285.85,423.94 278.52,427.95 283.15,436.37" type="building"/>
   <poly color="red" fill="1" id="162614763" layer="-1.00" shape="310.03,421.20 316.82,417.49 312.60,409.81 305.80,413.53 310.03,421.20" type="building"/>
   <poly color="red" fill="1" id="162614767" layer="-1.00" shape="239.32,473.81 247.44,469.36 252.78,479.08 244.66,483.51 239.32,473.81" type="building"/>
   <poly color="red" fill="1" id="162614772" layer="-1.00" shape="290.48,432.37 297.81,428.37 293.18,419.94 285.85,423.94 290.48,432.37" type="building"/>
   <poly color="red" fill="1" id="162614775" layer="-1.00" shape="305.80,413.53 298.25,417.65 302.48,425.33 310.03,421.20 305.80,413.53" type="building"/>
   <poly color="red" fill="1" id="162614777" layer="-1.00" shape="270.47,443.24 277.70,439.27 273.56,431.74 266.33,435.69 270.47,443.24" type="building"/>
   <poly color="red" fill="1" id="162614782" layer="-1.00" shape="384.25,778.92 399.18,770.71 394.44,762.14 379.51,770.36 384.25,778.92" type="building"/>
   <poly color="red" fill="1" id="162614783" layer="-1.00" shape="327.27,499.78 334.39,495.89 329.67,487.31 322.55,491.20 327.27,499.78" type="building"/>
   <poly color="red" fill="0" id="162614788" layer="-1.00" shape="422.38,782.80 417.73,774.52 383.46,793.68" type="building"/>
   <poly color="red" fill="1" id="162614789" layer="-1.00" shape="347.31,488.69 354.57,484.71 350.01,476.43 342.75,480.39 347.31,488.69" type="building"/>
   <poly color="red" fill="0" id="162614791" layer="-1.00" shape="363.60,791.32 335.57,741.41 326.07,746.75 319.46,750.40" type="building"/>
   <poly color="red" fill="1" id="162614799" layer="-1.00" shape="427.05,756.65 442.50,748.28 414.90,697.64 408.68,701.03 399.25,706.23 427.05,756.65" type="building"/>
   <poly color="red" fill="1" id="162614801" layer="-1.00" shape="10.61,697.40 21.58,716.78 102.81,671.06 98.21,662.94 26.26,703.42 19.90,692.18 10.61,697.40" type="building"/>
   <poly color="red" fill="1" id="162614802" layer="-1.00" shape="74.61,621.11 75.36,620.70 73.80,617.93 73.05,618.35 71.35,615.33 64.39,619.22 57.91,622.85 62.48,630.97 75.91,623.44 74.61,621.11" type="building"/>
   <poly color="red" fill="1" id="162614804" layer="-1.00" shape="317.74,735.77 319.35,734.88 328.89,729.60 336.27,725.54 313.99,685.43 297.53,694.52 308.83,714.85 306.75,716.00 317.74,735.77" type="building"/>
   <poly color="red" fill="1" id="162614807" layer="-1.00" shape="384.95,697.78 392.52,693.69 401.72,688.54 403.48,687.65 392.94,668.47 390.95,669.56 379.57,648.87 363.03,657.91 384.95,697.78" type="building"/>
   <poly color="red" fill="1" id="163840168" layer="-1.00" shape="288.46,548.15 284.21,550.41 289.48,560.26 293.73,558.01 288.46,548.15" type="building"/>
   <poly color="red" fill="1" id="163840169" layer="-1.00" shape="296.96,543.63 292.71,545.88 297.98,555.74 302.23,553.48 296.96,543.63" type="building"/>
   <poly color="red" fill="1" id="163840170" layer="-1.00" shape="284.21,550.41 279.96,552.66 285.23,562.52 289.48,560.26 284.21,550.41" type="building"/>
   <poly color="red" fill="1" id="163840171" layer="-1.00" shape="292.71,545.88 288.46,548.15 293.73,558.01 297.98,555.74 292.71,545.88" type="building"/>
   <poly color="red" fill="1" id="163840172" layer="-1.00" shape="301.23,541.36 296.96,543.63 302.23,553.48 306.50,551.22 304.16,546.83 301.23,541.36" type="building"/>
   <poly color="red" fill="1" id="163840173" layer="-1.00" shape="301.23,541.36 297.79,534.91 302.07,532.63 308.45,544.55 304.16,546.83 301.23,541.36" type="building"/>
   <poly color="red" fill="1" id="163841601" layer="-1.00" shape="295.62,571.49 291.37,573.74 296.64,583.60 300.88,581.34 295.62,571.49" type="building"/>
   <poly color="red" fill="1" id="163841602" layer="-1.00" shape="299.86,569.23 295.62,571.49 300.88,581.34 305.14,579.09 299.86,569.23" type="building"/>
   <poly color="red" fill="1" id="163841603" layer="-1.00" shape="304.12,566.98 299.86,569.23 305.14,579.09 309.39,576.83 304.12,566.98" type="building"/>
   <poly color="red" fill="1" id="163841604" layer="-1.00" shape="308.36,564.71 304.12,566.98 309.39,576.83 313.63,574.57 308.36,564.71" type="building"/>
   <poly color="red" fill="1" id="163841605" layer="-1.00" shape="312.64,562.44 308.36,564.71 313.63,574.57 317.91,572.30 315.56,567.91 312.64,562.44" type="building"/>
   <poly color="red" fill="1" id="163841606" layer="-1.00" shape="312.64,562.44 309.20,555.99 313.48,553.72 319.85,565.63 315.56,567.91 312.64,562.44" type="building"/>
   <poly color="red" fill="1" id="163843008" layer="-1.00" shape="344.02,628.47 339.77,630.72 345.04,640.58 349.28,638.32 344.02,628.47" type="building"/>
   <poly color="red" fill="1" id="163843009" layer="-1.00" shape="319.85,585.94 315.59,588.19 320.86,598.05 325.11,595.79 319.85,585.94" type="building"/>
   <poly color="red" fill="1" id="163843010" layer="-1.00" shape="327.58,609.31 323.33,611.57 328.60,621.43 332.85,619.16 327.58,609.31" type="building"/>
   <poly color="red" fill="1" id="163843011" layer="-1.00" shape="335.51,632.99 331.27,635.25 336.54,645.10 340.78,642.85 335.51,632.99" type="building"/>
   <poly color="red" fill="1" id="163843012" layer="-1.00" shape="311.34,590.45 307.10,592.71 312.37,602.57 316.61,600.30 311.34,590.45" type="building"/>
   <poly color="red" fill="1" id="163843013" layer="-1.00" shape="319.08,613.83 314.83,616.08 320.10,625.94 324.35,623.69 319.08,613.83" type="building"/>
   <poly color="red" fill="1" id="163843014" layer="-1.00" shape="339.77,630.72 335.51,632.99 340.78,642.85 345.04,640.58 339.77,630.72" type="building"/>
   <poly color="red" fill="1" id="163843015" layer="-1.00" shape="315.59,588.19 311.34,590.45 316.61,600.30 320.86,598.05 315.59,588.19" type="building"/>
   <poly color="red" fill="1" id="163843016" layer="-1.00" shape="331.82,607.05 327.58,609.31 332.85,619.16 337.09,616.91 331.82,607.05" type="building"/>
   <poly color="red" fill="1" id="163843017" layer="-1.00" shape="331.27,635.25 327.02,637.50 332.29,647.36 336.54,645.10 331.27,635.25" type="building"/>
   <poly color="red" fill="1" id="163843018" layer="-1.00" shape="307.10,592.71 302.85,594.97 308.12,604.83 312.37,602.57 307.10,592.71" type="building"/>
   <poly color="red" fill="1" id="163843019" layer="-1.00" shape="323.33,611.57 319.08,613.83 324.35,623.69 328.60,621.43 323.33,611.57" type="building"/>
   <poly color="red" fill="1" id="163843020" layer="-1.00" shape="348.29,626.20 344.02,628.47 349.28,638.32 353.56,636.06 351.22,631.67 348.29,626.20" type="building"/>
   <poly color="red" fill="1" id="163843021" layer="-1.00" shape="324.12,583.67 319.85,585.94 325.11,595.79 329.39,593.51 327.05,589.13 324.12,583.67" type="building"/>
   <poly color="red" fill="1" id="163843022" layer="-1.00" shape="336.10,604.78 332.66,598.33 336.95,596.05 343.31,607.96 339.02,610.25 336.10,604.78" type="building"/>
   <poly color="red" fill="1" id="163843023" layer="-1.00" shape="348.29,626.20 344.84,619.75 349.13,617.46 355.50,629.38 351.22,631.67 348.29,626.20" type="building"/>
   <poly color="red" fill="1" id="163843024" layer="-1.00" shape="324.12,583.67 320.67,577.22 324.96,574.93 331.33,586.85 327.05,589.13 324.12,583.67" type="building"/>
   <poly color="red" fill="1" id="163843025" layer="-1.00" shape="336.10,604.78 331.82,607.05 337.09,616.91 341.37,614.64 339.02,610.25 336.10,604.78" type="building"/>
   <poly color="red" fill="1" id="163845252" layer="-1.00" shape="356.10,566.29 351.87,568.58 357.23,578.40 361.45,576.10 356.10,566.29" type="building"/>
   <poly color="red" fill="1" id="163845255" layer="-1.00" shape="375.51,611.42 371.28,613.71 376.64,623.52 380.87,621.22 375.51,611.42" type="building"/>
   <poly color="red" fill="1" id="163845256" layer="-1.00" shape="363.45,589.51 359.21,591.80 364.58,601.61 368.80,599.31 363.45,589.51" type="building"/>
   <poly color="red" fill="1" id="163845257" layer="-1.00" shape="379.74,609.12 375.51,611.42 380.87,621.22 385.10,618.93 379.74,609.12" type="building"/>
   <poly color="red" fill="1" id="163845259" layer="-1.00" shape="367.67,587.20 363.45,589.51 368.80,599.31 373.03,597.01 367.67,587.20" type="building"/>
   <poly color="red" fill="1" id="163845261" layer="-1.00" shape="347.64,570.88 343.41,573.17 348.77,582.99 353.00,580.69 347.64,570.88" type="building"/>
   <poly color="red" fill="1" id="163845263" layer="-1.00" shape="360.35,563.98 356.10,566.29 361.45,576.10 365.71,573.78 360.35,563.98" type="building"/>
   <poly color="red" fill="1" id="163845264" layer="-1.00" shape="359.21,591.80 354.99,594.10 360.34,603.90 364.58,601.61 359.21,591.80" type="building"/>
   <poly color="red" fill="1" id="163845268" layer="-1.00" shape="371.28,613.71 367.05,616.01 372.41,625.81 376.64,623.52 371.28,613.71" type="building"/>
   <poly color="red" fill="1" id="163845269" layer="-1.00" shape="383.99,606.80 379.74,609.12 385.10,618.93 389.35,616.62 383.99,606.80" type="building"/>
   <poly color="red" fill="1" id="163845270" layer="-1.00" shape="371.93,584.89 367.67,587.20 373.03,597.01 377.29,594.71 371.93,584.89" type="building"/>
   <poly color="red" fill="1" id="163845272" layer="-1.00" shape="351.87,568.58 347.64,570.88 353.00,580.69 357.23,578.40 351.87,568.58" type="building"/>
   <poly color="red" fill="1" id="163845273" layer="-1.00" shape="361.57,626.06 355.09,614.21 359.35,611.89 362.84,618.30 365.83,623.76 361.57,626.06" type="building"/>
   <poly color="red" fill="1" id="163845275" layer="-1.00" shape="343.41,573.17 339.21,575.46 342.19,580.92 344.56,585.27 348.77,582.99 343.41,573.17" type="building"/>
   <poly color="red" fill="1" id="163845277" layer="-1.00" shape="349.51,604.15 343.03,592.30 347.28,589.98 350.78,596.38 353.77,601.85 349.51,604.15" type="building"/>
   <poly color="red" fill="1" id="163845278" layer="-1.00" shape="354.99,594.10 350.78,596.38 353.77,601.85 356.14,606.19 360.34,603.90 354.99,594.10" type="building"/>
   <poly color="red" fill="1" id="163845279" layer="-1.00" shape="367.05,616.01 362.84,618.30 365.83,623.76 368.20,628.10 372.41,625.81 367.05,616.01" type="building"/>
   <poly color="red" fill="1" id="163845280" layer="-1.00" shape="337.93,583.24 331.45,571.38 335.71,569.07 339.21,575.46 342.19,580.92 337.93,583.24" type="building"/>
   <poly color="red" fill="1" id="163847284" layer="-1.00" shape="336.88,521.60 332.62,523.92 337.99,533.72 342.24,531.41 336.88,521.60" type="building"/>
   <poly color="red" fill="1" id="163847286" layer="-1.00" shape="324.17,528.51 319.94,530.80 325.30,540.61 329.53,538.31 324.17,528.51" type="building"/>
   <poly color="red" fill="1" id="163847287" layer="-1.00" shape="344.22,544.82 339.99,547.11 345.35,556.93 349.57,554.62 344.22,544.82" type="building"/>
   <poly color="red" fill="1" id="163847288" layer="-1.00" shape="328.40,526.21 324.17,528.51 329.53,538.31 333.75,536.02 328.40,526.21" type="building"/>
   <poly color="red" fill="1" id="163847289" layer="-1.00" shape="348.47,542.51 344.22,544.82 349.57,554.62 353.83,552.31 348.47,542.51" type="building"/>
   <poly color="red" fill="1" id="163847290" layer="-1.00" shape="335.76,549.41 331.53,551.71 336.89,561.52 341.12,559.23 335.76,549.41" type="building"/>
   <poly color="red" fill="1" id="163847292" layer="-1.00" shape="339.99,547.11 335.76,549.41 341.12,559.23 345.35,556.93 339.99,547.11" type="building"/>
   <poly color="red" fill="1" id="163847293" layer="-1.00" shape="332.62,523.92 328.40,526.21 333.75,536.02 337.99,533.72 332.62,523.92" type="building"/>
   <poly color="red" fill="1" id="163847294" layer="-1.00" shape="331.53,551.71 327.32,553.99 330.31,559.45 332.68,563.81 336.89,561.52 331.53,551.71" type="building"/>
   <poly color="red" fill="1" id="163847295" layer="-1.00" shape="314.46,540.86 307.97,529.01 312.24,526.69 315.73,533.09 318.72,538.55 314.46,540.86" type="building"/>
   <poly color="red" fill="1" id="163847296" layer="-1.00" shape="319.94,530.80 315.73,533.09 318.72,538.55 321.09,542.89 325.30,540.61 319.94,530.80" type="building"/>
   <poly color="red" fill="1" id="163847297" layer="-1.00" shape="326.05,561.77 319.57,549.91 323.83,547.60 327.32,553.99 330.31,559.45 326.05,561.77" type="building"/>
   <poly color="red" fill="1" id="163854218" layer="-1.00" shape="230.69,304.65 236.88,314.76 249.03,307.35 242.83,297.25 230.69,304.65" type="building"/>
   <poly color="red" fill="1" id="163854220" layer="-1.00" shape="236.88,314.76 243.07,324.86 255.22,317.45 249.03,307.35 236.88,314.76" type="building"/>
   <poly color="red" fill="1" id="163854224" layer="-1.00" shape="246.04,330.49 250.04,337.16 258.55,332.09 254.56,325.41 246.04,330.49" type="building"/>
   <poly color="red" fill="1" id="163854227" layer="-1.00" shape="250.04,337.16 254.03,343.83 262.55,338.76 258.55,332.09 250.04,337.16" type="building"/>
   <poly color="red" fill="1" id="163854228" layer="-1.00" shape="254.03,343.83 258.02,350.50 266.54,345.42 262.55,338.76 254.03,343.83" type="building"/>
   <poly color="207,245,201" fill="1" id="163855270" layer="-2.00" shape="784.46,65.69" type="leisure"/>
   <poly color="79,230,125" fill="1" id="163855270#1" layer="-2.00" shape="784.46,65.69" type="sport"/>
   <poly color="red" fill="1" id="207761371" layer="-1.00" shape="131.70,40.99 108.95,2.61 113.96,-0.35 136.72,38.04 131.70,40.99" type="building"/>
   <poly color="red" fill="1" id="207761803" layer="-1.00" shape="143.25,34.34 138.04,25.51 146.97,20.27 152.18,29.10 143.25,34.34" type="building"/>
   <poly color="red" fill="1" id="207762289" layer="-1.00" shape="172.14,17.37 167.72,9.72 174.16,6.01 178.58,13.66 172.14,17.37" type="building"/>
   <poly color="red" fill="1" id="207762290" layer="-1.00" shape="156.68,26.67 152.07,18.70 159.96,14.17 164.57,22.14 156.68,26.67" type="building"/>
   <poly color="red" fill="1" id="209142933" layer="-1.00" shape="253.16,421.28 260.27,417.38 255.66,408.99 248.53,412.90 253.16,421.28" type="building"/>
   <poly color="red" fill="1" id="209142934" layer="-1.00" shape="224.38,439.63 217.07,426.64 246.86,409.96 248.53,412.90 253.16,421.28 254.14,422.99 224.38,439.63" type="building"/>
   <poly color="red" fill="1" id="209143001" layer="-1.00" shape="269.47,414.67 262.20,400.98 263.68,389.36 274.94,390.60 274.48,394.32 279.69,403.86 283.83,401.63 286.00,405.33 269.47,414.67" type="building"/>
   <poly color="red" fill="1" id="209143070" layer="-1.00" shape="288.23,404.32 284.09,396.46 294.80,390.85 298.94,398.70 288.23,404.32" type="building"/>
   <poly color="red" fill="1" id="209143284" layer="-1.00" shape="199.60,399.08 198.75,399.54 193.57,390.11 209.69,381.30 214.84,390.69 212.95,391.72 199.60,399.08" type="building"/>
   <poly color="red" fill="1" id="209143285" layer="-1.00" shape="224.56,412.72 230.04,409.71 218.42,388.68 214.84,390.69 212.95,391.72 224.56,412.72" type="building"/>
   <poly color="red" fill="1" id="209143286" layer="-1.00" shape="211.38,419.97 199.60,399.08 212.95,391.72 224.56,412.72 211.38,419.97" type="building"/>
   <poly color="194,194,130" fill="1" id="209144276" layer="-3.00" shape="399.78,475.97 397.69,475.08 397.66,472.46 411.37,464.51 417.81,463.42 418.81,465.36 399.78,475.97" type="landuse"/>
   <poly color="194,194,130" fill="1" id="209144277" layer="-3.00" shape="348.25,504.49 345.80,503.74 346.04,500.87 357.45,494.63 359.88,495.46 359.65,498.21 348.25,504.49" type="landuse"/>
   <poly color="194,194,130" fill="1" id="209144958" layer="-3.00" shape="180.51,383.24 175.93,374.76 176.24,372.21 178.11,371.11 181.25,371.43 182.87,372.58 183.10,374.81 182.03,382.67 180.51,383.24" type="landuse"/>
   <poly color="184,184,179" fill="1" id="244063499" layer="-1.00" shape="250.40,501.37 242.57,487.31 249.31,483.57 257.15,497.64 250.40,501.37" type="parking"/>
   <poly color="red" fill="1" id="244063621" layer="-1.00" shape="7.55,745.12" type="building"/>
   <poly color="207,245,201" fill="1" id="244366611" layer="-2.00" shape="782.74,72.91" type="leisure"/>
   <poly color="79,230,125" fill="1" id="244366611#1" layer="-2.00" shape="782.74,72.91" type="sport"/>
   <poly color="red" fill="0" id="244627081" layer="-1.00" shape="674.83,-18.13 664.18,-11.73" type="building"/>
   <poly color="red" fill="1" id="244627082" layer="-1.00" shape="680.05,4.25 675.20,-3.08 683.37,-8.46 688.22,-1.13 680.05,4.25" type="building"/>
   <poly color="red" fill="1" id="244627083" layer="-1.00" shape="686.79,21.34 682.06,13.75 692.32,7.40 697.05,14.99 686.79,21.34" type="building"/>
   <poly color="red" fill="1" id="244627084" layer="-1.00" shape="694.08,38.81 688.66,29.70 700.24,22.85 705.66,31.96 694.08,38.81" type="building"/>
   <poly color="red" fill="1" id="244627085" layer="-1.00" shape="704.57,57.04 699.01,47.63 710.73,40.75 716.29,50.16 704.57,57.04" type="building"/>
   <poly color="red" fill="1" id="244627086" layer="-1.00" shape="718.62,69.37 714.17,61.97 721.74,57.45 726.19,64.85 718.62,69.37" type="building"/>
   <poly color="red" fill="1" id="244627087" layer="-1.00" shape="724.94,88.35 719.17,78.57 729.20,72.69 734.96,82.48 724.94,88.35" type="building"/>
   <poly color="red" fill="1" id="244627088" layer="-1.00" shape="738.49,108.98 732.51,98.82 741.42,93.61 747.40,103.78 738.49,108.98" type="building"/>
   <poly color="red" fill="1" id="244627089" layer="-1.00" shape="726.65,102.25 732.51,98.82 738.49,108.98 732.62,112.41 726.65,102.25" type="building"/>
   <poly color="red" fill="1" id="244630035" layer="-1.00" shape="706.89,126.22 700.50,129.76 696.82,123.13 703.22,119.60 706.89,126.22" type="building"/>
   <poly color="red" fill="1" id="244630036" layer="-1.00" shape="706.89,126.22 703.22,119.60 714.42,113.37 718.13,119.99 706.89,126.22" type="building"/>
   <poly color="red" fill="1" id="244630037" layer="-1.00" shape="693.19,106.18 689.81,100.52 680.79,105.89 684.18,111.54 693.19,106.18" type="building"/>
   <poly color="red" fill="1" id="244630038" layer="-1.00" shape="674.60,95.28 670.63,88.48 679.78,83.18 683.75,89.97 674.60,95.28" type="building"/>
   <poly color="red" fill="1" id="244630039" layer="-1.00" shape="674.92,71.90 671.06,65.19 678.05,61.21 681.90,67.92 674.92,71.90" type="building"/>
   <poly color="red" fill="1" id="244630040" layer="-1.00" shape="656.56,62.82 651.69,54.37 664.25,47.18 669.11,55.63 656.56,62.82" type="building"/>
   <poly color="red" fill="1" id="244630041" layer="-1.00" shape="656.18,39.31 652.12,32.35 659.09,28.30 663.15,35.26 656.18,39.31" type="building"/>
   <poly color="red" fill="1" id="244630042" layer="-1.00" shape="636.81,28.85 632.67,21.58 640.56,17.11 644.70,24.37 636.81,28.85" type="building"/>
   <poly color="red" fill="1" id="244630043" layer="-1.00" shape="616.60,-4.13 613.32,-9.66 615.79,-11.11 614.02,-14.11 624.67,-15.83 621.69,-14.08 624.74,-8.93 616.60,-4.13" type="building"/>
   <poly color="red" fill="1" id="244630044" layer="-1.00" shape="636.37,6.06 632.58,-0.57 641.16,-5.46 644.95,1.18 636.37,6.06" type="building"/>
   <poly color="red" fill="1" id="244633710" layer="-1.00" shape="185.56,8.75 192.87,4.71 188.60,-2.97 181.29,1.07 185.56,8.75" type="building"/>
   <poly color="red" fill="1" id="244633711" layer="-1.00" shape="200.73,-0.13 207.69,-4.22 203.24,-11.77 196.28,-7.69 200.73,-0.13" type="building"/>
   <poly color="red" fill="1" id="244633712" layer="-1.00" shape="215.94,-9.15 223.19,-13.25 215.94,-9.15" type="building"/>
   <poly color="red" fill="1" id="244635140" layer="-1.00" shape="339.86,50.33 350.08,44.21 344.53,35.03 334.33,41.25 339.86,50.33" type="building"/>
   <poly color="red" fill="1" id="244635141" layer="-1.00" shape="334.33,41.25 329.09,32.69 339.30,26.48 344.53,35.03 334.33,41.25" type="building"/>
   <poly color="red" fill="1" id="244635142" layer="-1.00" shape="323.99,30.05 334.43,23.98 328.93,14.57 318.49,20.64 323.99,30.05" type="building"/>
   <poly color="red" fill="1" id="244635143" layer="-1.00" shape="318.49,20.64 313.29,11.84 323.79,5.71 328.93,14.57 318.49,20.64" type="building"/>
   <poly color="red" fill="1" id="244635144" layer="-1.00" shape="369.44,31.54 378.98,26.40 374.10,17.41 364.56,22.55 369.44,31.54" type="building"/>
   <poly color="red" fill="1" id="244635145" layer="-1.00" shape="311.35,8.11 321.71,1.88 316.09,-7.41 305.73,-1.17 311.35,8.11" type="building"/>
   <poly color="red" fill="1" id="244635146" layer="-1.00" shape="305.73,-1.17 300.19,-10.26 316.09,-7.41 305.73,-1.17" type="building"/>
   <poly color="red" fill="1" id="244635147" layer="-1.00" shape="297.90,-14.22" type="building"/>
   <poly color="red" fill="1" id="244635341" layer="-1.00" shape="358.44,5.68 366.24,0.67 361.04,-7.46 353.19,-2.47 358.44,5.68" type="building"/>
   <poly color="red" fill="1" id="244635342" layer="-1.00" shape="353.19,-2.47 348.13,-10.38 355.97,-15.37 361.04,-7.46 353.19,-2.47" type="building"/>
   <poly color="red" fill="1" id="244636514" layer="-1.00" shape="426.65,-1.88 421.20,-10.79 426.99,-14.31 425.64,-16.53 436.83,-8.06 426.65,-1.88" type="building"/>
   <poly color="red" fill="1" id="244636515" layer="-1.00" shape="410.19,8.26 420.36,2.09 414.88,-6.89 404.71,-0.71 410.19,8.26" type="building"/>
   <poly color="red" fill="1" id="244636516" layer="-1.00" shape="393.13,17.19 401.48,12.75 397.08,4.53 388.74,8.97 393.13,17.19" type="building"/>
   <poly color="red" fill="1" id="244636517" layer="-1.00" shape="378.64,-7.63 385.01,-11.34 374.66,-14.44 378.64,-7.63" type="building"/>
   <poly color="red" fill="1" id="244636518" layer="-1.00" shape="374.66,-14.44" type="building"/>
   <poly color="red" fill="1" id="244637018" layer="-1.00" shape="254.21,-5.18 263.17,-10.52 267.69,-13.20 268.45,-13.65 249.93,-12.31 254.21,-5.18" type="building"/>
   <poly color="red" fill="1" id="244637019" layer="-1.00" shape="224.22,11.13 231.18,7.15 235.49,4.69 232.07,-1.25 220.81,5.21 224.22,11.13" type="building"/>
   <poly color="red" fill="1" id="244637020" layer="-1.00" shape="266.67,3.09 269.54,7.60 276.60,3.12 273.73,-1.38 266.67,3.09" type="building"/>
   <poly color="red" fill="1" id="244637021" layer="-1.00" shape="277.08,21.67 284.98,17.13 280.12,8.71 272.22,13.25 277.08,21.67" type="building"/>
   <poly color="red" fill="1" id="244637022" layer="-1.00" shape="290.48,28.84 286.16,21.79 278.98,26.17 283.30,33.22 290.48,28.84" type="building"/>
   <poly color="red" fill="1" id="244637023" layer="-1.00" shape="286.50,82.58 281.40,73.07 289.63,68.69 294.73,78.20 286.50,82.58" type="building"/>
   <poly color="red" fill="1" id="244637025" layer="-1.00" shape="313.99,65.26 306.78,69.50 299.88,57.77 307.09,53.56 313.99,65.26" type="building"/>
   <poly color="red" fill="1" id="244637026" layer="-1.00" shape="290.27,45.35 298.49,40.50 302.19,46.76 293.96,51.58 290.27,45.35" type="building"/>
   <poly color="red" fill="1" id="244637027" layer="-1.00" shape="290.27,45.35 286.85,39.58 295.06,34.73 298.49,40.50 290.27,45.35" type="building"/>
   <poly color="red" fill="1" id="244637028" layer="-1.00" shape="231.18,7.15 235.10,13.96 228.14,17.94 224.22,11.13 231.18,7.15" type="building"/>
   <poly color="red" fill="1" id="244637029" layer="-1.00" shape="238.96,37.02 246.46,32.67 242.74,26.31 235.25,30.66 238.96,37.02" type="building"/>
   <poly color="red" fill="1" id="244637030" layer="-1.00" shape="235.25,30.66 231.72,24.63 239.22,20.27 242.74,26.31 235.25,30.66" type="building"/>
   <poly color="red" fill="1" id="244637031" layer="-1.00" shape="244.77,48.43 252.62,43.96 256.27,50.34 248.49,54.83 244.77,48.43" type="building"/>
   <poly color="red" fill="1" id="244637032" layer="-1.00" shape="244.77,48.43 241.08,41.98 248.92,37.52 252.62,43.96 244.77,48.43" type="building"/>
   <poly color="red" fill="1" id="244637033" layer="-1.00" shape="255.35,66.86 263.05,62.12 266.77,68.10 259.08,72.86 255.35,66.86" type="building"/>
   <poly color="red" fill="1" id="244637034" layer="-1.00" shape="255.35,66.86 251.76,61.07 259.45,56.32 263.05,62.12 255.35,66.86" type="building"/>
   <poly color="red" fill="1" id="244637035" layer="-1.00" shape="274.89,84.69 268.82,88.35 273.79,96.53 279.94,92.81 274.89,84.69" type="building"/>
   <poly color="red" fill="1" id="244638116" layer="-1.00" shape="250.23,111.11 259.95,105.32 254.77,96.66 245.04,102.46 250.23,111.11" type="building"/>
   <poly color="red" fill="1" id="244638117" layer="-1.00" shape="226.66,125.11 222.18,117.56 216.43,120.94 220.91,128.49 226.66,125.11" type="building"/>
   <poly color="red" fill="1" id="244638118" layer="-1.00" shape="201.59,110.82 208.87,106.58 204.69,99.45 197.41,103.69 201.59,110.82" type="building"/>