<?xml version="1.0" encoding="utf-8"?><!-- generated on 10/11/17 17:55:53 by SUMO netconvert Version 0.25.0
<?xml version="1.0" encoding="UTF-8"?>

<configuration xmlns:xsi="http://www.w3.org/2001/XMLSchema-instance" xsi:noNamespaceSchemaLocation="http://sumo.dlr.de/xsd/netconvertConfiguration.xsd">

    <input>
        <type-files value="osmNetconvert.typ.xml"/>
        <osm-files value="MA_GartenStd_urban_800.osm"/>
    </input>

    <output>
        <output-file value="MA_GartenStd_urban_800.net.xml"/>
    </output>

    <projection>
        <proj.utm value="true"/>
    </projection>

    <edge_removal>
        <remove-edges.by-type value="highway.track,highway.unsurfaced,highway.raceway,highway.bridleway,highway.path,highway.footway,highway.pedestrian,highway.cycleway,highway.step,highway.steps,highway.stairs,highway.bus_guideway,highway.ford,railway.rail,railway.tram,railway.light_rail,railway.subway,railway.preserved,railway.narrow_gauge,railway.monorail,railway.funicular"/>
    </edge_removal>

</configuration>
-->
<net version="0.25">
   <location convBoundary="0.00,0.00,807.79,794.64" netOffset="-463347.03,-5486123.93" origBoundary="8.493515,49.526576,8.504646,49.533787" projParameter="+proj=utm +zone=32 +ellps=WGS84 +datum=WGS84 +units=m +no_defs"/>
   <type allow="pedestrian" id="highway.bridleway" numLanes="1" oneway="1" priority="1" speed="2.78" width="2.00"/>
   <type allow="bus" id="highway.bus_guideway" numLanes="1" oneway="1" priority="1" speed="8.33"/>
   <type allow="bicycle" id="highway.cycleway" numLanes="1" oneway="0" priority="1" speed="5.56" width="1.00"/>
   <type allow="pedestrian" id="highway.footway" numLanes="1" oneway="1" priority="1" speed="8.33" width="2.00"/>
   <type allow="army" id="highway.ford" numLanes="1" oneway="0" priority="1" speed="2.78"/>
   <type disallow="tram rail_urban rail rail_electric ship" id="highway.living_street" numLanes="1" oneway="0" priority="3" speed="2.78"/>
   <type allow="private emergency authority army vip passenger hov taxi bus coach delivery truck trailer motorcycle evehicle custom1 custom2" id="highway.motorway" numLanes="2" oneway="1" priority="13" speed="44.44"/>
   <type allow="private emergency authority army vip passenger hov taxi bus coach delivery truck trailer motorcycle evehicle custom1 custom2" id="highway.motorway_link" numLanes="1" oneway="1" priority="12" speed="22.22"/>
   <type allow="bicycle pedestrian" id="highway.path" numLanes="1" oneway="1" priority="1" speed="2.78" width="2.00"/>
   <type allow="pedestrian" id="highway.pedestrian" numLanes="1" oneway="1" priority="1" speed="8.33" width="2.00"/>
   <type disallow="tram rail_urban rail rail_electric ship" id="highway.primary" numLanes="2" oneway="0" priority="9" speed="27.78"/>
   <type disallow="tram rail_urban rail rail_electric ship" id="highway.primary_link" numLanes="1" oneway="0" priority="8" speed="22.22"/>
   <type allow="vip" id="highway.raceway" numLanes="2" oneway="0" priority="14" speed="83.33"/>
   <type disallow="tram rail_urban rail rail_electric ship" id="highway.residential" numLanes="1" oneway="0" priority="4" speed="13.89"/>
   <type disallow="tram rail_urban rail rail_electric ship" id="highway.secondary" numLanes="2" oneway="0" priority="7" speed="27.78"/>
   <type disallow="tram rail_urban rail rail_electric ship" id="highway.secondary_link" numLanes="1" oneway="0" priority="6" speed="22.22"/>
   <type allow="delivery bicycle pedestrian" id="highway.service" numLanes="1" oneway="0" priority="2" speed="5.56"/>
   <type disallow="tram rail_urban rail rail_electric ship" id="highway.services" numLanes="1" oneway="0" priority="1" speed="8.33"/>
   <type allow="pedestrian" id="highway.stairs" numLanes="1" oneway="1" priority="1" speed="1.39" width="2.00"/>
   <type allow="pedestrian" id="highway.step" numLanes="1" oneway="1" priority="1" speed="1.39" width="2.00"/>
   <type allow="pedestrian" id="highway.steps" numLanes="1" oneway="1" priority="1" speed="1.39" width="2.00"/>
   <type disallow="tram rail_urban rail rail_electric ship" id="highway.tertiary" numLanes="1" oneway="0" priority="6" speed="22.22"/>
   <type disallow="tram rail_urban rail rail_electric ship" id="highway.tertiary_link" numLanes="1" oneway="0" priority="5" speed="22.22"/>
   <type disallow="tram rail_urban rail rail_electric ship" id="highway.track" numLanes="1" oneway="0" priority="1" speed="5.56"/>
   <type disallow="tram rail_urban rail rail_electric bicycle pedestrian ship" id="highway.trunk" numLanes="2" oneway="0" priority="11" speed="27.78"/>
   <type disallow="tram rail_urban rail rail_electric bicycle pedestrian ship" id="highway.trunk_link" numLanes="1" oneway="0" priority="10" speed="22.22"/>
   <type disallow="tram rail_urban rail rail_electric ship" id="highway.unclassified" numLanes="1" oneway="0" priority="5" speed="13.89"/>
   <type disallow="tram rail_urban rail rail_electric ship" id="highway.unsurfaced" numLanes="1" oneway="0" priority="1" speed="8.33"/>
   <type allow="rail_urban" id="railway.light_rail" numLanes="1" oneway="1" priority="15" speed="27.78"/>
   <type allow="rail" id="railway.preserved" numLanes="1" oneway="1" priority="15" speed="27.78"/>
   <type allow="rail rail_electric" id="railway.rail" numLanes="1" oneway="1" priority="15" speed="83.33"/>
   <type allow="rail_urban" id="railway.subway" numLanes="1" oneway="1" priority="15" speed="27.78"/>
   <type allow="tram" id="railway.tram" numLanes="1" oneway="1" priority="15" speed="13.89"/>
   <edge function="internal" id=":1052502434_0">
      <lane disallow="tram rail_urban rail rail_electric ship" id=":1052502434_0_0" index="0" length="5.01" shape="301.63,529.05 300.79,527.95 299.81,527.39 298.68,527.35 297.40,527.84" speed="8.33"/>
   </edge>
   <edge function="internal" id=":1052502434_1">
      <lane disallow="tram rail_urban rail rail_electric ship" id=":1052502434_1_0" index="0" length="10.33" shape="301.63,529.05 300.61,526.40 300.68,524.07 301.84,522.05 304.10,520.33" speed="8.33"/>
   </edge>
   <edge function="internal" id=":1052502434_2">
      <lane allow="delivery bicycle pedestrian" id=":1052502434_2_0" index="0" length="4.82" shape="301.63,529.05 301.74,527.56 302.26,526.80 303.18,526.76 304.51,527.44" speed="8.33"/>
   </edge>
   <edge function="internal" id=":1052502434_3">
      <lane allow="delivery bicycle pedestrian" id=":1052502434_3_0" index="0" length="5.00" shape="305.70,523.22 304.61,524.05 304.05,525.03 304.01,526.16 304.51,527.44" speed="8.33"/>
   </edge>
   <edge function="internal" id=":1052502434_4">
      <lane disallow="tram rail_urban rail rail_electric ship" id=":1052502434_4_0" index="0" length="9.50" shape="305.70,523.22 297.40,527.84" speed="8.33"/>
   </edge>
   <edge function="internal" id=":1052502434_5">
      <lane disallow="tram rail_urban rail rail_electric ship" id=":1052502434_5_0" index="0" length="2.41" shape="305.70,523.22 304.22,523.10 303.46,522.58" speed="8.33"/>
   </edge>
   <edge function="internal" id=":1052502434_9">
      <lane id=":1052502434_9_0" index="0" length="2.41" shape="303.46,522.58 303.42,521.66 304.10,520.33" speed="8.33"/>
   </edge>
   <edge function="internal" id=":1052502434_6">
      <lane disallow="tram rail_urban rail rail_electric ship" id=":1052502434_6_0" index="0" length="9.50" shape="295.80,524.96 304.10,520.33" speed="8.33"/>
   </edge>
   <edge function="internal" id=":1052502434_7">
      <lane allow="delivery bicycle pedestrian" id=":1052502434_7_0" index="0" length="5.27" shape="295.80,524.96 298.43,523.94 300.76,524.02 300.86,524.08" speed="8.33"/>
   </edge>
   <edge function="internal" id=":1052502434_8">
      <lane disallow="tram rail_urban rail rail_electric ship" id=":1052502434_8_0" index="0" length="2.41" shape="295.80,524.96 297.28,525.07 298.04,525.59" speed="8.33"/>
   </edge>
   <edge function="internal" id=":1052502434_10">
      <lane id=":1052502434_10_0" index="0" length="5.05" shape="300.86,524.08 302.79,525.18 304.51,527.44" speed="8.33"/>
   </edge>
   <edge function="internal" id=":1052502434_11">
      <lane id=":1052502434_11_0" index="0" length="2.41" shape="298.04,525.59 298.08,526.52 297.40,527.84" speed="8.33"/>
   </edge>
   <edge function="internal" id=":124579044_0">
      <lane disallow="tram rail_urban rail rail_electric ship" id=":124579044_0_0" index="0" length="5.30" shape="321.83,387.32 320.39,387.35 319.29,387.83 318.53,388.76 318.11,390.15" speed="11.11"/>
   </edge>
   <edge function="internal" id=":124579044_1">
      <lane disallow="tram rail_urban rail rail_electric ship" id=":124579044_1_0" index="0" length="9.72" shape="321.83,387.32 312.18,386.18" speed="8.33"/>
   </edge>
   <edge function="internal" id=":124579044_2">
      <lane disallow="tram rail_urban rail rail_electric ship" id=":124579044_2_0" index="0" length="10.49" shape="321.83,387.32 319.04,386.57 317.19,385.10 316.29,382.92 316.32,380.04" speed="8.33"/>
   </edge>
   <edge function="internal" id=":124579044_3">
      <lane disallow="tram rail_urban rail rail_electric ship" id=":124579044_3_0" index="0" length="4.82" shape="321.83,387.32 320.70,386.35 320.39,385.48 320.90,384.71 322.23,384.04" speed="8.33"/>
   </edge>
   <edge function="internal" id=":124579044_4">
      <lane disallow="tram rail_urban rail rail_electric ship" id=":124579044_4_0" index="0" length="5.04" shape="319.58,380.54 319.57,381.93 320.00,382.98 320.89,383.68 322.23,384.04" speed="8.33"/>
   </edge>
   <edge function="internal" id=":124579044_5">
      <lane disallow="tram rail_urban rail rail_electric ship" id=":124579044_5_0" index="0" length="9.72" shape="319.58,380.54 318.11,390.15" speed="11.11"/>
   </edge>
   <edge function="internal" id=":124579044_6">
      <lane disallow="tram rail_urban rail rail_electric ship" id=":124579044_6_0" index="0" length="5.26" shape="319.58,380.54 318.75,383.28 317.24,385.14" speed="8.33"/>
   </edge>
   <edge function="internal" id=":124579044_7">
      <lane disallow="tram rail_urban rail rail_electric ship" id=":124579044_7_0" index="0" length="2.41" shape="319.58,380.54 318.58,381.64 317.70,381.92" speed="8.33"/>
   </edge>
   <edge function="internal" id=":124579044_16">
      <lane id=":124579044_16_0" index="0" length="5.26" shape="317.24,385.14 315.05,386.10 312.18,386.18" speed="8.33"/>
   </edge>
   <edge function="internal" id=":124579044_17">
      <lane id=":124579044_17_0" index="0" length="2.41" shape="317.70,381.92 316.95,381.38 316.32,380.04" speed="8.33"/>
   </edge>
   <edge function="internal" id=":124579044_8">
      <lane disallow="tram rail_urban rail rail_electric ship" id=":124579044_8_0" index="0" length="5.35" shape="312.56,382.90 314.02,382.86 315.13,382.37 315.90,381.43 316.32,380.04" speed="8.33"/>
   </edge>
   <edge function="internal" id=":124579044_9">
      <lane disallow="tram rail_urban rail rail_electric ship" id=":124579044_9_0" index="0" length="9.74" shape="312.56,382.90 322.23,384.04" speed="8.33"/>
   </edge>
   <edge function="internal" id=":124579044_10">
      <lane disallow="tram rail_urban rail rail_electric ship" id=":124579044_10_0" index="0" length="10.50" shape="312.56,382.90 315.35,383.63 317.21,385.09 318.13,387.26 318.11,390.15" speed="11.11"/>
   </edge>
   <edge function="internal" id=":124579044_11">
      <lane disallow="tram rail_urban rail rail_electric ship" id=":124579044_11_0" index="0" length="4.82" shape="312.56,382.90 313.69,383.86 314.01,384.73 313.51,385.50 312.18,386.18" speed="8.33"/>
   </edge>
   <edge function="internal" id=":124579044_12">
      <lane disallow="tram rail_urban rail rail_electric ship" id=":124579044_12_0" index="0" length="5.04" shape="314.85,389.66 314.86,388.27 314.42,387.23 313.53,386.53 312.18,386.18" speed="11.11"/>
   </edge>
   <edge function="internal" id=":124579044_13">
      <lane disallow="tram rail_urban rail rail_electric ship" id=":124579044_13_0" index="0" length="9.74" shape="314.85,389.66 316.32,380.04" speed="11.11"/>
   </edge>
   <edge function="internal" id=":124579044_14">
      <lane disallow="tram rail_urban rail rail_electric ship" id=":124579044_14_0" index="0" length="5.37" shape="314.85,389.66 315.67,386.91 317.18,385.06 317.28,385.01" speed="11.11"/>
   </edge>
   <edge function="internal" id=":124579044_15">
      <lane disallow="tram rail_urban rail rail_electric ship" id=":124579044_15_0" index="0" length="2.41" shape="314.85,389.66 315.85,388.56 316.73,388.27" speed="13.89"/>
   </edge>
   <edge function="internal" id=":124579044_18">
      <lane id=":124579044_18_0" index="0" length="5.14" shape="317.28,385.01 319.36,384.10 322.23,384.04" speed="11.11"/>
   </edge>
   <edge function="internal" id=":124579044_19">
      <lane id=":124579044_19_0" index="0" length="2.41" shape="316.73,388.27 317.48,388.80 318.11,390.15" speed="13.89"/>
   </edge>
   <edge function="internal" id=":124584524_0">
      <lane disallow="tram rail_urban rail rail_electric ship" id=":124584524_0_0" index="0" length="0.10" shape="663.42,541.90 663.43,541.90" speed="8.33"/>
   </edge>
   <edge function="internal" id=":124584524_1">
      <lane disallow="tram rail_urban rail rail_electric ship" id=":124584524_1_0" index="0" length="2.41" shape="663.42,541.90 662.36,540.86 662.10,539.97" speed="8.33"/>
   </edge>
   <edge function="internal" id=":124584524_4">
      <lane id=":124584524_4_0" index="0" length="2.41" shape="662.10,539.97 662.66,539.24 664.03,538.66" speed="8.33"/>
   </edge>
   <edge function="internal" id=":124584524_2">
      <lane disallow="tram rail_urban rail rail_electric ship" id=":124584524_2_0" index="0" length="0.10" shape="664.03,538.66 664.03,538.66" speed="8.33"/>
   </edge>
   <edge function="internal" id=":124584524_3">
      <lane disallow="tram rail_urban rail rail_electric ship" id=":124584524_3_0" index="0" length="2.41" shape="664.03,538.66 665.10,539.70 665.35,540.58" speed="8.33"/>
   </edge>
   <edge function="internal" id=":124584524_5">
      <lane id=":124584524_5_0" index="0" length="2.41" shape="665.35,540.58 664.80,541.32 663.43,541.90" speed="8.33"/>
   </edge>
   <edge function="internal" id=":124586238_0">
      <lane disallow="tram rail_urban rail rail_electric ship" id=":124586238_0_0" index="0" length="4.82" shape="799.64,708.32 801.12,708.25 801.94,708.67 802.10,709.58 801.59,710.98" speed="8.33"/>
   </edge>
   <edge function="internal" id=":124604027_0">
      <lane disallow="tram rail_urban rail rail_electric ship" id=":124604027_0_0" index="0" length="5.28" shape="509.34,410.31 508.00,410.36 506.95,410.88 506.19,411.86 505.72,413.31" speed="13.89"/>
   </edge>
   <edge function="internal" id=":124604027_1">
      <lane disallow="tram rail_urban rail rail_electric ship" id=":124604027_1_0" index="0" length="9.51" shape="509.34,410.31 499.90,409.15" speed="13.89"/>
   </edge>
   <edge function="internal" id=":124604027_2">
      <lane disallow="tram rail_urban rail rail_electric ship" id=":124604027_2_0" index="0" length="2.41" shape="509.34,410.31 508.21,409.34 507.90,408.47" speed="13.89"/>
   </edge>
   <edge function="internal" id=":124604027_9">
      <lane id=":124604027_9_0" index="0" length="2.41" shape="507.90,408.47 508.41,407.70 509.73,407.03" speed="13.89"/>
   </edge>
   <edge function="internal" id=":124604027_3">
      <lane disallow="tram rail_urban rail rail_electric ship" id=":124604027_3_0" index="0" length="9.50" shape="500.30,405.88 509.73,407.03" speed="13.89"/>
   </edge>
   <edge function="internal" id=":124604027_4">
      <lane disallow="tram rail_urban rail rail_electric ship" id=":124604027_4_0" index="0" length="5.33" shape="500.30,405.88 503.15,406.65 505.00,408.15" speed="13.89"/>
   </edge>
   <edge function="internal" id=":124604027_5">
      <lane disallow="tram rail_urban rail rail_electric ship" id=":124604027_5_0" index="0" length="2.41" shape="500.30,405.88 501.43,406.85 501.74,407.72" speed="13.89"/>
   </edge>
   <edge function="internal" id=":124604027_10">
      <lane id=":124604027_10_0" index="0" length="5.33" shape="505.00,408.15 505.86,410.37 505.72,413.31" speed="13.89"/>
   </edge>
   <edge function="internal" id=":124604027_11">
      <lane id=":124604027_11_0" index="0" length="2.41" shape="501.74,407.72 501.23,408.49 499.90,409.15" speed="13.89"/>
   </edge>
   <edge function="internal" id=":124604027_6">
      <lane disallow="tram rail_urban rail rail_electric ship" id=":124604027_6_0" index="0" length="5.08" shape="502.48,412.70 502.54,411.29 502.14,410.24 501.25,409.52 499.90,409.15" speed="13.89"/>
   </edge>
   <edge function="internal" id=":124604027_7">
      <lane disallow="tram rail_urban rail rail_electric ship" id=":124604027_7_0" index="0" length="10.34" shape="502.48,412.70 503.39,409.95 504.90,408.08 507.02,407.11 509.73,407.03" speed="13.89"/>
   </edge>
   <edge function="internal" id=":124604027_8">
      <lane disallow="tram rail_urban rail rail_electric ship" id=":124604027_8_0" index="0" length="4.82" shape="502.48,412.70 503.52,411.64 504.41,411.38 505.14,411.94 505.72,413.31" speed="13.89"/>
   </edge>
   <edge function="internal" id=":124604028_0">
      <lane disallow="tram rail_urban rail rail_electric ship" id=":124604028_0_0" index="0" length="5.12" shape="456.02,450.31 455.26,449.11 454.31,448.49 453.17,448.44 451.85,448.96" speed="8.33"/>
   </edge>
   <edge function="internal" id=":124604028_1">
      <lane disallow="tram rail_urban rail rail_electric ship" id=":124604028_1_0" index="0" length="10.06" shape="456.02,450.31 454.80,447.60 453.96,445.73 453.12,443.86 451.90,441.14" speed="8.33"/>
   </edge>
   <edge function="internal" id=":124604028_2">
      <lane disallow="tram rail_urban rail rail_electric ship" id=":124604028_2_0" index="0" length="10.78" shape="456.02,450.31 455.19,447.48 455.42,445.02 456.71,442.94 459.06,441.23" speed="8.33"/>
   </edge>
   <edge function="internal" id=":124604028_3">
      <lane disallow="tram rail_urban rail rail_electric ship" id=":124604028_3_0" index="0" length="4.82" shape="456.02,450.31 456.27,448.84 456.85,448.13 457.77,448.16 459.03,448.95" speed="8.33"/>
   </edge>
   <edge function="internal" id=":124604028_4">
      <lane disallow="tram rail_urban rail rail_electric ship" id=":124604028_4_0" index="0" length="5.70" shape="460.61,444.14 459.37,445.04 458.70,446.15 458.59,447.45 459.03,448.95" speed="8.33"/>
   </edge>
   <edge function="internal" id=":124604028_5">
      <lane disallow="tram rail_urban rail rail_electric ship" id=":124604028_5_0" index="0" length="9.99" shape="460.61,444.14 451.85,448.96" speed="8.33"/>
   </edge>
   <edge function="internal" id=":124604028_6">
      <lane disallow="tram rail_urban rail rail_electric ship" id=":124604028_6_0" index="0" length="10.67" shape="460.61,444.14 457.83,445.14 455.45,444.97 453.48,443.64 451.90,441.14" speed="8.33"/>
   </edge>
   <edge function="internal" id=":124604028_7">
      <lane disallow="tram rail_urban rail rail_electric ship" id=":124604028_7_0" index="0" length="4.82" shape="460.61,444.14 459.13,443.99 458.38,443.46 458.36,442.53 459.06,441.23" speed="8.33"/>
   </edge>
   <edge function="internal" id=":124604028_8">
      <lane disallow="tram rail_urban rail rail_electric ship" id=":124604028_8_0" index="0" length="5.08" shape="454.92,439.79 455.67,440.98 456.61,441.62 457.74,441.70 459.06,441.23" speed="8.33"/>
   </edge>
   <edge function="internal" id=":124604028_9">
      <lane disallow="tram rail_urban rail rail_electric ship" id=":124604028_9_0" index="0" length="10.04" shape="454.92,439.79 456.13,442.51 456.97,444.38 457.81,446.24 459.03,448.95" speed="8.33"/>
   </edge>
   <edge function="internal" id=":124604028_10">
      <lane disallow="tram rail_urban rail rail_electric ship" id=":124604028_10_0" index="0" length="10.79" shape="454.92,439.79 455.71,442.58 455.47,445.04 454.18,447.16 451.85,448.96" speed="8.33"/>
   </edge>
   <edge function="internal" id=":124604028_11">
      <lane disallow="tram rail_urban rail rail_electric ship" id=":124604028_11_0" index="0" length="4.82" shape="454.92,439.79 454.67,441.26 454.08,441.97 453.16,441.93 451.90,441.14" speed="8.33"/>
   </edge>
   <edge function="internal" id=":124604028_12">
      <lane disallow="tram rail_urban rail rail_electric ship" id=":124604028_12_0" index="0" length="5.85" shape="450.22,446.09 451.49,445.12 452.19,443.97 452.33,442.64 451.90,441.14" speed="8.33"/>
   </edge>
   <edge function="internal" id=":124604028_13">
      <lane disallow="tram rail_urban rail rail_electric ship" id=":124604028_13_0" index="0" length="10.10" shape="450.22,446.09 452.81,444.62 454.61,443.61 456.43,442.62 459.06,441.23" speed="8.33"/>
   </edge>
   <edge function="internal" id=":124604028_14">
      <lane disallow="tram rail_urban rail rail_electric ship" id=":124604028_14_0" index="0" length="10.81" shape="450.22,446.09 453.01,444.99 455.41,445.10 457.42,446.42 459.03,448.95" speed="8.33"/>
   </edge>
   <edge function="internal" id=":124604028_15">
      <lane disallow="tram rail_urban rail rail_electric ship" id=":124604028_15_0" index="0" length="4.82" shape="450.22,446.09 451.70,446.20 452.47,446.71 452.52,447.63 451.85,448.96" speed="8.33"/>
   </edge>
   <edge function="internal" id=":124604030_0">
      <lane disallow="tram rail_urban rail rail_electric ship" id=":124604030_0_0" index="0" length="5.02" shape="220.72,574.09 219.89,573.00 218.90,572.43 217.77,572.40 216.48,572.89" speed="11.11"/>
   </edge>
   <edge function="internal" id=":124604030_1">
      <lane disallow="tram rail_urban rail rail_electric ship" id=":124604030_1_0" index="0" length="9.52" shape="220.72,574.09 216.07,565.79" speed="13.89"/>
   </edge>
   <edge function="internal" id=":124604030_2">
      <lane disallow="tram rail_urban rail rail_electric ship" id=":124604030_2_0" index="0" length="5.28" shape="220.72,574.09 219.70,571.45 219.77,569.12 219.83,569.02" speed="11.11"/>
   </edge>
   <edge function="internal" id=":124604030_3">
      <lane disallow="tram rail_urban rail rail_electric ship" id=":124604030_3_0" index="0" length="2.41" shape="220.72,574.09 220.84,572.61 221.35,571.85" speed="13.89"/>
   </edge>
   <edge function="internal" id=":124604030_16">
      <lane id=":124604030_16_0" index="0" length="5.05" shape="219.83,569.02 220.94,567.09 223.19,565.38" speed="11.11"/>
   </edge>
   <edge function="internal" id=":124604030_17">
      <lane id=":124604030_17_0" index="0" length="2.41" shape="221.35,571.85 222.28,571.80 223.60,572.48" speed="13.89"/>
   </edge>
   <edge function="internal" id=":124604030_4">
      <lane disallow="tram rail_urban rail rail_electric ship" id=":124604030_4_0" index="0" length="5.00" shape="224.80,568.26 223.70,569.09 223.14,570.07 223.11,571.20 223.60,572.48" speed="11.11"/>
   </edge>
   <edge function="internal" id=":124604030_5">
      <lane disallow="tram rail_urban rail rail_electric ship" id=":124604030_5_0" index="0" length="9.52" shape="224.80,568.26 216.48,572.89" speed="8.33"/>
   </edge>
   <edge function="internal" id=":124604030_6">
      <lane disallow="tram rail_urban rail rail_electric ship" id=":124604030_6_0" index="0" length="10.33" shape="224.80,568.26 222.15,569.28 219.82,569.20 217.79,568.04 216.07,565.79" speed="11.11"/>
   </edge>
   <edge function="internal" id=":124604030_7">
      <lane disallow="tram rail_urban rail rail_electric ship" id=":124604030_7_0" index="0" length="4.82" shape="224.80,568.26 223.31,568.14 222.55,567.62 222.51,566.70 223.19,565.38" speed="8.33"/>
   </edge>
   <edge function="internal" id=":124604030_8">
      <lane disallow="tram rail_urban rail rail_electric ship" id=":124604030_8_0" index="0" length="5.02" shape="218.95,564.18 219.79,565.27 220.77,565.83 221.91,565.87 223.19,565.38" speed="11.11"/>
   </edge>
   <edge function="internal" id=":124604030_9">
      <lane disallow="tram rail_urban rail rail_electric ship" id=":124604030_9_0" index="0" length="9.52" shape="218.95,564.18 223.60,572.48" speed="13.89"/>
   </edge>
   <edge function="internal" id=":124604030_10">
      <lane disallow="tram rail_urban rail rail_electric ship" id=":124604030_10_0" index="0" length="5.28" shape="218.95,564.18 219.97,566.82 219.90,569.15 219.84,569.25" speed="11.11"/>
   </edge>
   <edge function="internal" id=":124604030_11">
      <lane disallow="tram rail_urban rail rail_electric ship" id=":124604030_11_0" index="0" length="2.41" shape="218.95,564.18 218.84,565.66 218.32,566.42" speed="13.89"/>
   </edge>
   <edge function="internal" id=":124604030_18">
      <lane id=":124604030_18_0" index="0" length="5.05" shape="219.84,569.25 218.74,571.18 216.48,572.89" speed="11.11"/>
   </edge>
   <edge function="internal" id=":124604030_19">
      <lane id=":124604030_19_0" index="0" length="2.41" shape="218.32,566.42 217.40,566.47 216.07,565.79" speed="13.89"/>
   </edge>
   <edge function="internal" id=":124604030_12">
      <lane disallow="tram rail_urban rail rail_electric ship" id=":124604030_12_0" index="0" length="5.00" shape="214.88,570.01 215.97,569.18 216.53,568.20 216.57,567.07 216.07,565.79" speed="11.11"/>
   </edge>
   <edge function="internal" id=":124604030_13">
      <lane disallow="tram rail_urban rail rail_electric ship" id=":124604030_13_0" index="0" length="9.52" shape="214.88,570.01 223.19,565.38" speed="8.33"/>
   </edge>
   <edge function="internal" id=":124604030_14">
      <lane disallow="tram rail_urban rail rail_electric ship" id=":124604030_14_0" index="0" length="10.33" shape="214.88,570.01 217.52,568.99 219.85,569.07 221.88,570.23 223.60,572.48" speed="11.11"/>
   </edge>
   <edge function="internal" id=":124604030_15">
      <lane disallow="tram rail_urban rail rail_electric ship" id=":124604030_15_0" index="0" length="4.82" shape="214.88,570.01 216.36,570.13 217.12,570.65 217.16,571.57 216.48,572.89" speed="8.33"/>
   </edge>
   <edge function="internal" id=":1439562568_0">
      <lane disallow="tram rail_urban rail rail_electric ship" id=":1439562568_0_0" index="0" length="1.55" shape="501.72,421.31 500.50,422.26" speed="11.11"/>
   </edge>
   <edge function="internal" id=":1439562568_1">
      <lane disallow="tram rail_urban rail rail_electric ship" id=":1439562568_1_0" index="0" length="2.41" shape="501.72,421.31 500.28,421.65 499.39,421.39" speed="13.89"/>
   </edge>
   <edge function="internal" id=":1439562568_4">
      <lane id=":1439562568_4_0" index="0" length="2.41" shape="499.39,421.39 499.07,420.53 499.31,419.06" speed="13.89"/>
   </edge>
   <edge function="internal" id=":1439562568_2">
      <lane disallow="tram rail_urban rail rail_electric ship" id=":1439562568_2_0" index="0" length="0.51" shape="498.91,419.37 499.31,419.06" speed="11.11"/>
   </edge>
   <edge function="internal" id=":1439562568_3">
      <lane disallow="tram rail_urban rail rail_electric ship" id=":1439562568_3_0" index="0" length="2.41" shape="498.91,419.37 500.39,419.50 501.15,420.02" speed="8.33"/>
   </edge>
   <edge function="internal" id=":1439562568_5">
      <lane id=":1439562568_5_0" index="0" length="2.41" shape="501.15,420.02 501.19,420.94 500.50,422.26" speed="8.33"/>
   </edge>
   <edge function="internal" id=":1439562571_0">
      <lane disallow="tram rail_urban rail rail_electric ship" id=":1439562571_0_0" index="0" length="8.58" shape="527.74,413.13 519.32,411.51" speed="13.89"/>
   </edge>
   <edge function="internal" id=":1439562571_1">
      <lane disallow="tram rail_urban rail rail_electric ship" id=":1439562571_1_0" index="0" length="4.80" shape="527.74,413.13 525.38,412.10 523.84,410.50" speed="13.89"/>
   </edge>
   <edge function="internal" id=":1439562571_2">
      <lane disallow="tram rail_urban rail rail_electric ship" id=":1439562571_2_0" index="0" length="5.17" shape="527.74,413.13 525.63,413.00 524.54,412.28 524.46,410.97 524.65,410.58" speed="13.89"/>
   </edge>
   <edge function="internal" id=":1439562571_9">
      <lane id=":1439562571_9_0" index="0" length="4.99" shape="523.84,410.50 523.12,408.34 523.23,405.62" speed="13.89"/>
   </edge>
   <edge function="internal" id=":1439562571_10">
      <lane id=":1439562571_10_0" index="0" length="1.68" shape="524.65,410.58 525.39,409.07" speed="13.89"/>
   </edge>
   <edge function="internal" id=":1439562571_3">
      <lane disallow="tram rail_urban rail rail_electric ship" id=":1439562571_3_0" index="0" length="3.08" shape="526.48,406.19 525.39,409.07" speed="13.89"/>
   </edge>
   <edge function="internal" id=":1439562571_4">
      <lane disallow="tram rail_urban rail rail_electric ship" id=":1439562571_4_0" index="0" length="10.06" shape="526.48,406.19 525.64,408.79 524.16,410.55 522.06,411.46 519.32,411.51" speed="13.89"/>
   </edge>
   <edge function="internal" id=":1439562571_5">
      <lane disallow="tram rail_urban rail rail_electric ship" id=":1439562571_5_0" index="0" length="4.82" shape="526.48,406.19 525.46,407.27 524.57,407.53 523.83,406.98 523.23,405.62" speed="13.89"/>
   </edge>
   <edge function="internal" id=":1439562571_6">
      <lane disallow="tram rail_urban rail rail_electric ship" id=":1439562571_6_0" index="0" length="4.94" shape="519.72,408.24 521.06,408.21 522.09,407.76 522.82,406.90 523.23,405.62" speed="13.89"/>
   </edge>
   <edge function="internal" id=":1439562571_7">
      <lane disallow="tram rail_urban rail rail_electric ship" id=":1439562571_7_0" index="0" length="5.74" shape="519.72,408.24 525.39,409.07" speed="13.89"/>
   </edge>
   <edge function="internal" id=":1439562571_8">
      <lane disallow="tram rail_urban rail rail_electric ship" id=":1439562571_8_0" index="0" length="2.58" shape="519.72,408.24 520.85,409.20 521.16,410.07 521.06,410.22" speed="13.89"/>
   </edge>
   <edge function="internal" id=":1439562571_11">
      <lane id=":1439562571_11_0" index="0" length="2.23" shape="521.06,410.22 520.65,410.84 519.32,411.51" speed="13.89"/>
   </edge>
   <edge function="internal" id=":146782741_0">