<?xml version="1.0" encoding="utf-8"?><!-- generated on 10/11/17 17:56:11 by SUMO polyconvert Version 0.25.0
<?xml version="1.0" encoding="UTF-8"?>

<configuration xmlns:xsi="http://www.w3.org/2001/XMLSchema-instance" xsi:noNamespaceSchemaLocation="http://sumo.dlr.de/xsd/polyconvertConfiguration.xsd">

    <input>
        <net-file value="MS_Altstadt_historical_800.net.xml"/>
        <osm-files value="MS_Altstadt_historical_800.osm"/>
        <type-file value="osmPolyconvert.typ.xml"/>
    </input>

    <output>
        <output-file value="MS_Altstadt_historical_800.poly.xml"/>
    </output>

    <projection>
        <proj.utm value="true"/>
    </projection>

    <processing>
        <poi-layer-offset value="5"/>
    </processing>

</configuration>
-->
<additional>
   <location convBoundary="-0.00,0.00,780.05,824.46" netOffset="-405158.46,-5757242.42" origBoundary="7.619701,51.957901,7.630899,51.965200" projParameter="+proj=utm +zone=32 +ellps=WGS84 +datum=WGS84 +units=m +no_defs"/>
   <poly color="red" fill="1" id="100219947" layer="-1.00" shape="385.33,464.52 383.40,451.17 383.72,451.11 386.89,450.65 422.34,445.53 419.57,426.39 414.44,427.14 413.59,421.24 418.71,420.50 418.16,416.69 417.37,416.81 417.32,416.45 419.13,416.20 417.86,407.41 421.58,406.85 423.74,406.55 423.88,407.24 425.01,406.98 430.11,405.91 435.59,443.59 436.17,443.50 438.11,456.86 385.33,464.52" type="building"/>
   <poly color="red" fill="1" id="100219948" layer="-1.00" shape="438.98,384.22 437.31,378.10 438.58,377.76 438.28,376.63 435.65,377.36 433.63,369.98 436.31,369.26 435.93,368.12 434.66,368.46 432.98,362.36 447.90,358.23 449.60,364.38 448.29,364.75 448.60,365.87 451.29,365.15 453.10,371.76 457.77,370.49 457.26,368.61 454.37,358.02 459.67,356.58 462.55,367.14 469.78,365.16 476.03,388.04 480.59,404.78 475.87,406.09 476.27,407.53 476.57,408.60 480.21,407.59 480.95,410.24 482.04,409.95 481.68,408.63 487.76,406.93 492.97,425.61 494.53,425.17 493.04,419.82 514.99,413.71 516.68,419.79 515.37,420.15 515.72,421.40 518.35,420.67 521.24,431.07 522.77,430.64 522.28,428.89 526.24,427.86 529.35,436.84 528.86,437.02 528.37,435.59 525.19,436.48 525.72,438.37 500.18,445.47 499.90,444.47 485.09,448.59 471.96,452.25 471.64,451.11 449.92,457.13 448.24,451.08 449.55,450.72 449.21,449.49 446.56,450.23 444.10,441.39 446.75,440.65 446.40,439.39 445.14,439.75 443.44,433.60 444.26,433.38 456.06,430.11 465.39,427.51 466.88,432.86 468.36,432.44 463.17,413.78 469.26,412.08 469.62,413.39 470.72,413.08 469.98,410.44 473.60,409.43 472.86,406.95 468.15,408.24 458.52,373.15 452.48,374.81 453.94,380.13 438.98,384.22" type="building"/>
   <poly color="235,235,227" fill="0" id="101312370" layer="-3.00" shape="73.66,818.48 173.67,818.78" type="residential"/>
   <poly color="237,199,199" fill="1" id="101771593" layer="-1.00" shape="769.47,309.95 769.62,308.92 769.85,308.30 770.25,307.61 770.95,306.93 771.84,306.53 771.99,328.01 770.90,327.70 769.98,327.16 768.81,326.35 768.19,325.22 767.89,324.22 767.82,323.43 767.79,322.27 767.68,321.71 766.98,320.83 766.71,319.92 766.77,318.99 766.05,318.48 766.14,317.67 764.93,317.59 764.88,318.09 763.65,317.97 763.70,317.67 760.18,317.27 760.10,317.59 758.89,317.45 758.90,316.48 759.23,316.45 759.59,313.54 759.29,313.49 759.45,312.43 760.87,312.60 760.83,312.92 764.17,313.33 764.19,312.94 765.55,313.09 765.41,314.43 766.67,314.54 766.89,312.89 767.12,312.53 767.16,311.97 767.44,311.54 768.00,311.46 768.69,311.07 769.15,310.56 769.47,309.95" type="amenity"/>
   <poly color="red" fill="1" id="101771593#1" layer="-1.00" shape="769.47,309.95 769.62,308.92 769.85,308.30 770.25,307.61 770.95,306.93 771.84,306.53 771.99,328.01 770.90,327.70 769.98,327.16 768.81,326.35 768.19,325.22 767.89,324.22 767.82,323.43 767.79,322.27 767.68,321.71 766.98,320.83 766.71,319.92 766.77,318.99 766.05,318.48 766.14,317.67 764.93,317.59 764.88,318.09 763.65,317.97 763.70,317.67 760.18,317.27 760.10,317.59 758.89,317.45 758.90,316.48 759.23,316.45 759.59,313.54 759.29,313.49 759.45,312.43 760.87,312.60 760.83,312.92 764.17,313.33 764.19,312.94 765.55,313.09 765.41,314.43 766.67,314.54 766.89,312.89 767.12,312.53 767.16,311.97 767.44,311.54 768.00,311.46 768.69,311.07 769.15,310.56 769.47,309.95" type="building"/>
   <poly color="181,209,209" fill="0" id="10191758" layer="-4.00" shape="19.15,146.48 88.58,199.94 152.66,265.26 160.13,283.60 162.62,310.57 162.28,336.40 154.35,360.58 128.90,407.12 123.34,426.24 121.28,445.43 122.69,462.66 125.26,474.29 133.26,491.78 153.99,521.32 168.28,537.14 180.34,548.73 195.41,564.38 211.21,580.78 234.39,597.72 249.98,616.41 269.42,645.04 278.76,655.71 285.32,662.52 292.64,669.39 298.19,673.44 303.29,676.26 307.95,678.20 313.00,679.66 322.22,680.63 331.88,680.83 338.78,681.88 347.36,684.40 352.22,686.55 358.28,690.55 367.38,699.22 373.14,710.43 379.10,755.60 380.48,767.30 382.69,773.19 386.12,777.94 392.06,783.22 397.91,786.19 427.53,794.43 460.53,801.75" type="water"/>
   <poly color="red" fill="1" id="102274096" layer="-1.00" shape="301.63,615.54 303.08,617.80 293.52,624.82 285.49,616.60 291.82,612.04 291.47,611.55 291.81,611.31 292.17,611.79 296.41,608.74 296.06,608.24 296.44,607.97 296.79,608.46 300.87,605.53 300.52,605.03 300.81,604.83 301.16,605.32 303.61,603.56 290.37,582.99 289.88,583.05 286.95,585.03 283.87,580.29 288.30,577.41 284.78,571.85 288.76,569.64 287.80,567.67 287.47,567.83 285.33,563.44 280.44,565.83 275.95,556.61 275.80,555.85 275.86,555.26 275.95,554.87 276.07,554.59 276.19,554.31 276.52,553.85 276.92,553.47 277.52,553.10 278.58,552.80 279.56,553.00 280.09,553.23 280.62,553.61 281.09,554.16 282.38,556.70 285.64,555.06 292.08,567.80 312.73,556.34 315.79,563.86 299.96,573.95 304.46,580.99 304.88,580.72 311.40,590.79 311.07,591.00 314.79,596.76 326.06,589.35 329.24,597.61 301.63,615.54" type="building"/>
   <poly color="red" fill="1" id="102274097" layer="-1.00" shape="268.81,629.44 277.09,622.65 277.23,622.54 287.22,634.59 279.44,642.06 268.81,629.44" type="building"/>
   <poly color="red" fill="1" id="103453947" layer="-1.00" shape="236.61,427.25 235.85,419.14 237.71,418.97 237.27,414.22 237.07,414.22 236.41,407.06 236.62,407.02 236.19,402.28 234.34,402.45 233.56,393.94 233.99,393.90 247.05,393.17 247.51,393.16 247.55,393.36 262.22,392.37 270.68,391.80 275.00,391.53 277.01,400.09 268.74,400.70 268.57,398.33 248.40,400.13 248.80,405.48 249.02,405.48 249.55,412.54 249.34,412.58 249.71,417.55 270.08,416.00 269.93,413.93 280.09,413.16 282.32,422.61 250.36,425.60 250.40,425.98 236.61,427.25" type="building"/>
   <poly color="207,245,201" fill="1" id="103453947#1" layer="-2.00" shape="236.61,427.25 235.85,419.14 237.71,418.97 237.27,414.22 237.07,414.22 236.41,407.06 236.62,407.02 236.19,402.28 234.34,402.45 233.56,393.94 233.99,393.90 247.05,393.17 247.51,393.16 247.55,393.36 262.22,392.37 270.68,391.80 275.00,391.53 277.01,400.09 268.74,400.70 268.57,398.33 248.40,400.13 248.80,405.48 249.02,405.48 249.55,412.54 249.34,412.58 249.71,417.55 270.08,416.00 269.93,413.93 280.09,413.16 282.32,422.61 250.36,425.60 250.40,425.98 236.61,427.25" type="tourism"/>
   <poly color="237,199,199" fill="1" id="103453951" layer="-1.00" shape="425.09,273.13 425.44,272.14 428.90,262.88 433.07,264.44 436.35,265.68 436.74,264.65 436.32,264.52 436.50,263.83 440.83,264.98 440.65,265.68 439.94,265.50 439.43,266.85 440.92,267.45 438.35,277.80 425.09,273.13" type="amenity"/>
   <poly color="red" fill="1" id="103453951#1" layer="-1.00" shape="425.09,273.13 425.44,272.14 428.90,262.88 433.07,264.44 436.35,265.68 436.74,264.65 436.32,264.52 436.50,263.83 440.83,264.98 440.65,265.68 439.94,265.50 439.43,266.85 440.92,267.45 438.35,277.80 425.09,273.13" type="building"/>
   <poly color="red" fill="1" id="103453956" layer="-1.00" shape="339.68,431.53 317.71,343.28 342.41,337.45 335.81,318.22 302.89,325.77 303.08,353.37 279.44,360.49 298.31,430.81 301.93,445.58 319.80,474.53 318.84,464.44 316.58,440.41 328.89,439.23 330.29,455.78 329.09,455.95 330.53,472.32 341.99,471.20 341.93,470.64 349.78,469.87 349.84,470.43 354.67,469.95 354.61,469.42 362.35,468.66 362.40,469.19 375.75,467.88 374.66,459.75 375.75,459.60 374.80,450.30 368.51,450.90 367.45,439.59 367.67,439.56 366.91,431.42 365.08,431.59 364.96,430.75 364.82,430.32 364.49,429.64 363.82,428.93 363.06,428.46 362.23,428.22 361.63,428.19 361.00,428.24 360.19,428.51 359.46,429.00 358.83,429.73 354.83,430.14 354.88,430.53 350.89,430.94 350.81,430.23 350.11,430.31 350.19,431.00 346.14,431.43 346.06,430.76 345.38,430.83 345.46,431.49 339.68,431.53" type="building"/>
   <poly color="207,245,201" fill="1" id="103453956#1" layer="-2.00" shape="339.68,431.53 317.71,343.28 342.41,337.45 335.81,318.22 302.89,325.77 303.08,353.37 279.44,360.49 298.31,430.81 301.93,445.58 319.80,474.53 318.84,464.44 316.58,440.41 328.89,439.23 330.29,455.78 329.09,455.95 330.53,472.32 341.99,471.20 341.93,470.64 349.78,469.87 349.84,470.43 354.67,469.95 354.61,469.42 362.35,468.66 362.40,469.19 375.75,467.88 374.66,459.75 375.75,459.60 374.80,450.30 368.51,450.90 367.45,439.59 367.67,439.56 366.91,431.42 365.08,431.59 364.96,430.75 364.82,430.32 364.49,429.64 363.82,428.93 363.06,428.46 362.23,428.22 361.63,428.19 361.00,428.24 360.19,428.51 359.46,429.00 358.83,429.73 354.83,430.14 354.88,430.53 350.89,430.94 350.81,430.23 350.11,430.31 350.19,431.00 346.14,431.43 346.06,430.76 345.38,430.83 345.46,431.49 339.68,431.53" type="tourism"/>
   <poly color="red" fill="1" id="103453965" layer="-1.00" shape="602.15,434.50 591.25,438.15 584.50,440.41 580.21,427.11 587.22,424.54 586.46,422.45 590.31,421.04 591.07,423.14 593.91,422.10 593.15,420.00 606.46,415.12 607.45,417.51 625.13,411.57 629.50,423.84 630.36,424.09 631.24,426.60 628.78,428.85 628.46,427.95 618.49,430.29 618.35,430.30 618.28,429.99 607.16,433.29 602.15,434.50" type="building"/>
   <poly color="237,199,199" fill="1" id="103453969" layer="-1.00" shape="376.42,385.50 376.50,385.81 376.22,385.88 376.33,386.32 375.38,386.55 375.26,386.05 375.01,386.12 374.93,385.79 372.42,386.04 372.38,386.40 372.14,386.39 372.08,386.88 371.13,386.80 371.17,386.31 370.86,386.27 370.90,385.88 370.56,385.77 370.13,385.40 369.97,385.11 369.78,384.39 354.05,388.20 351.66,379.12 348.39,366.62 328.68,372.78 328.63,372.61 328.46,372.66 325.78,363.31 351.19,355.36 357.53,356.79 360.05,357.11 360.08,357.38 365.57,355.95 370.30,354.55 371.37,359.01 372.00,358.98 372.32,359.02 372.69,359.18 373.05,359.43 373.37,359.83 373.58,360.32 411.86,350.89 411.95,351.18 412.14,351.14 415.23,364.40 413.10,364.90 414.83,372.28 416.74,371.91 417.64,376.47 418.86,382.69 417.04,383.04 421.58,406.85 417.86,407.41 411.33,408.33 409.19,397.90 409.22,397.66 409.39,397.43 410.68,397.24 406.59,375.46 384.41,380.84 384.57,382.11 384.52,382.43 384.29,382.63 384.49,383.06 384.26,383.18 384.46,383.63 383.52,384.06 383.31,383.61 383.01,383.75 382.87,383.45 380.40,384.34 380.52,384.68 380.33,384.76 380.49,385.22 379.56,385.56 379.38,385.08 379.12,385.17 379.00,384.87 376.42,385.50" type="amenity"/>
   <poly color="red" fill="1" id="103453969#1" layer="-1.00" shape="376.42,385.50 376.50,385.81 376.22,385.88 376.33,386.32 375.38,386.55 375.26,386.05 375.01,386.12 374.93,385.79 372.42,386.04 372.38,386.40 372.14,386.39 372.08,386.88 371.13,386.80 371.17,386.31 370.86,386.27 370.90,385.88 370.56,385.77 370.13,385.40 369.97,385.11 369.78,384.39 354.05,388.20 351.66,379.12 348.39,366.62 328.68,372.78 328.63,372.61 328.46,372.66 325.78,363.31 351.19,355.36 357.53,356.79 360.05,357.11 360.08,357.38 365.57,355.95 370.30,354.55 371.37,359.01 372.00,358.98 372.32,359.02 372.69,359.18 373.05,359.43 373.37,359.83 373.58,360.32 411.86,350.89 411.95,351.18 412.14,351.14 415.23,364.40 413.10,364.90 414.83,372.28 416.74,371.91 417.64,376.47 418.86,382.69 417.04,383.04 421.58,406.85 417.86,407.41 411.33,408.33 409.19,397.90 409.22,397.66 409.39,397.43 410.68,397.24 406.59,375.46 384.41,380.84 384.57,382.11 384.52,382.43 384.29,382.63 384.49,383.06 384.26,383.18 384.46,383.63 383.52,384.06 383.31,383.61 383.01,383.75 382.87,383.45 380.40,384.34 380.52,384.68 380.33,384.76 380.49,385.22 379.56,385.56 379.38,385.08 379.12,385.17 379.00,384.87 376.42,385.50" type="building"/>
   <poly color="red" fill="1" id="103453980" layer="-1.00" shape="197.77,422.13 196.56,417.68 196.22,417.69 193.90,397.42 196.33,397.14 196.36,396.30 195.33,395.73 195.12,392.12 197.36,389.27 200.46,389.09 200.70,389.43 208.48,367.39 208.33,366.07 224.98,364.12 226.40,375.13 227.79,386.07 229.61,385.83 230.06,393.53 210.20,395.76 211.91,411.01 212.76,410.92 213.11,414.06 212.25,414.16 212.87,419.67 197.77,422.13" type="building"/>
   <poly color="red" fill="1" id="103453985" layer="-1.00" shape="165.17,393.00 167.00,393.27 170.81,393.84 180.59,363.12 192.71,366.99 181.87,401.37 169.65,397.49 169.70,397.35 166.74,396.88 164.45,396.53 165.17,393.00" type="building"/>
   <poly color="red" fill="1" id="103453991" layer="-1.00" shape="425.01,406.98 419.50,381.23 426.55,379.68 432.02,405.48 430.11,405.91 425.01,406.98" type="building"/>
   <poly color="red" fill="1" id="103453993" layer="-1.00" shape="404.37,306.57 404.77,299.27 404.80,298.77 407.69,298.58 423.86,297.58 432.76,304.51 404.37,306.57" type="building"/>
   <poly color="red" fill="1" id="103453998" layer="-1.00" shape="565.53,409.97 559.42,398.64 562.18,397.11 571.13,392.15 577.45,388.69 589.90,382.67 592.09,387.00 593.53,389.88 588.47,392.34 590.44,396.57 583.97,399.45 565.53,409.97" type="building"/>
   <poly color="red" fill="1" id="103454000" layer="-1.00" shape="453.97,274.68 453.94,274.30 453.45,274.28 453.40,249.96 453.62,249.94 467.20,250.05 467.19,272.63 467.19,273.02 463.76,273.30 463.79,273.54 453.97,274.68" type="building"/>
   <poly color="207,245,201" fill="1" id="103454000#1" layer="-2.00" shape="453.97,274.68 453.94,274.30 453.45,274.28 453.40,249.96 453.62,249.94 467.20,250.05 467.19,272.63 467.19,273.02 463.76,273.30 463.79,273.54 453.97,274.68" type="tourism"/>
   <poly color="237,199,199" fill="1" id="103454007" layer="-1.00" shape="573.52,427.29 567.32,412.34 570.56,411.01 570.67,411.14 589.45,402.49 598.50,398.77 600.01,398.25 600.23,397.97 600.60,397.62 601.08,397.32 602.00,397.05 602.69,397.13 603.23,397.30 603.62,397.52 603.93,397.75 604.38,398.25 604.66,398.88 604.81,399.57 604.75,400.14 604.65,400.51 604.43,401.05 604.01,401.55 603.48,401.97 602.70,402.25 601.92,402.29 606.94,414.93 586.46,422.45 579.20,425.17 573.52,427.29" type="amenity"/>
   <poly color="red" fill="1" id="103454007#1" layer="-1.00" shape="573.52,427.29 567.32,412.34 570.56,411.01 570.67,411.14 589.45,402.49 598.50,398.77 600.01,398.25 600.23,397.97 600.60,397.62 601.08,397.32 602.00,397.05 602.69,397.13 603.23,397.30 603.62,397.52 603.93,397.75 604.38,398.25 604.66,398.88 604.81,399.57 604.75,400.14 604.65,400.51 604.43,401.05 604.01,401.55 603.48,401.97 602.70,402.25 601.92,402.29 606.94,414.93 586.46,422.45 579.20,425.17 573.52,427.29" type="building"/>
   <poly color="128,255,128" fill="1" id="103454007#2" layer="-1.00" shape="573.52,427.29 567.32,412.34 570.56,411.01 570.67,411.14 589.45,402.49 598.50,398.77 600.01,398.25 600.23,397.97 600.60,397.62 601.08,397.32 602.00,397.05 602.69,397.13 603.23,397.30 603.62,397.52 603.93,397.75 604.38,398.25 604.66,398.88 604.81,399.57 604.75,400.14 604.65,400.51 604.43,401.05 604.01,401.55 603.48,401.97 602.70,402.25 601.92,402.29 606.94,414.93 586.46,422.45 579.20,425.17 573.52,427.29" type="historic"/>
   <poly color="207,245,201" fill="1" id="103454007#3" layer="-2.00" shape="573.52,427.29 567.32,412.34 570.56,411.01 570.67,411.14 589.45,402.49 598.50,398.77 600.01,398.25 600.23,397.97 600.60,397.62 601.08,397.32 602.00,397.05 602.69,397.13 603.23,397.30 603.62,397.52 603.93,397.75 604.38,398.25 604.66,398.88 604.81,399.57 604.75,400.14 604.65,400.51 604.43,401.05 604.01,401.55 603.48,401.97 602.70,402.25 601.92,402.29 606.94,414.93 586.46,422.45 579.20,425.17 573.52,427.29" type="tourism"/>
   <poly color="red" fill="1" id="103480438" layer="-1.00" shape="391.34,306.25 391.76,294.07 391.97,294.06 395.68,294.17 395.72,292.19 399.86,292.27 399.79,299.07 399.44,299.06 399.49,306.63 391.34,306.25" type="building"/>
   <poly color="red" fill="1" id="103480439" layer="-1.00" shape="404.37,306.57 399.49,306.63 399.44,299.06 399.79,299.07 404.77,299.27 404.37,306.57" type="building"/>
   <poly color="red" fill="1" id="103480440" layer="-1.00" shape="409.81,161.52 400.62,163.28 393.92,164.38 392.32,155.69 389.83,156.11 388.76,149.84 401.37,147.43 401.85,150.95 412.62,148.94 424.39,145.96 427.63,158.79 409.81,161.52" type="building"/>
   <poly color="red" fill="1" id="103480441" layer="-1.00" shape="389.88,278.44 389.91,277.45 390.75,277.46 390.78,268.45 405.49,271.60 403.56,278.69 402.85,281.30 389.88,278.44" type="building"/>
   <poly color="red" fill="1" id="103480442" layer="-1.00" shape="371.73,293.55 370.22,293.52 370.31,289.34 371.84,289.38 371.99,281.99 376.64,281.90 377.83,281.87 377.88,279.88 378.18,267.54 390.78,268.27 390.78,268.45 390.75,277.46 389.91,277.45 386.93,277.45 386.63,286.86 371.73,293.55" type="building"/>
   <poly color="red" fill="1" id="103480443" layer="-1.00" shape="447.22,178.62 444.87,167.77 455.56,164.90 456.66,170.00 457.83,175.46 458.12,176.93 447.22,178.62" type="building"/>
   <poly color="red" fill="1" id="103480444" layer="-1.00" shape="515.68,345.69 523.04,325.80 523.52,324.52 533.33,326.07 532.92,331.15 531.84,346.95 530.15,354.09 528.25,356.38 515.68,345.69" type="building"/>
   <poly color="red" fill="1" id="103480445" layer="-1.00" shape="409.05,280.24 407.04,279.67 409.09,272.53 414.49,274.08 412.34,281.33 409.05,280.24" type="building"/>
   <poly color="red" fill="1" id="104051901" layer="-1.00" shape="556.64,373.02 555.37,365.95 562.41,364.71 563.67,371.74 556.64,373.02" type="building"/>
   <poly color="128,255,128" fill="1" id="104051901#1" layer="-1.00" shape="556.64,373.02 555.37,365.95 562.41,364.71 563.67,371.74 556.64,373.02" type="historic"/>
   <poly color="red" fill="1" id="104051901#2" layer="-1.00" shape="556.64,373.02 555.37,365.95 562.41,364.71 563.67,371.74 556.64,373.02" type="building"/>
   <poly color="red" fill="1" id="104205234" layer="-1.00" shape="303.74,280.54 299.57,274.57 302.94,272.23 320.64,270.51 321.12,274.71 318.28,274.75 312.72,275.55 303.74,280.54" type="building"/>
   <poly color="184,184,179" fill="1" id="111974810" layer="-1.00" shape="71.91,385.68 79.27,353.49 75.05,352.73 78.00,338.10 66.47,339.56 59.53,342.61 53.50,347.95 49.68,353.26 46.24,360.82 44.04,370.25 42.17,380.04 71.91,385.68" type="parking"/>
   <poly color="237,199,199" fill="1" id="111974812" layer="-1.00" shape="3.84,361.27 7.34,356.72 17.06,363.86 13.23,367.95 3.84,361.27" type="amenity"/>
   <poly color="red" fill="1" id="111974812#1" layer="-1.00" shape="3.84,361.27 7.34,356.72 17.06,363.86 13.23,367.95 3.84,361.27" type="building"/>
   <poly color="237,199,199" fill="1" id="118704846" layer="-1.00" shape="211.86,563.29 184.94,521.86 189.61,518.83 187.89,516.26 187.11,515.08 177.72,521.36 171.30,511.76 184.55,502.88 190.98,512.49 188.88,513.89 189.61,514.99 191.40,517.66 198.05,513.34 217.25,542.88 224.74,554.41 224.96,554.77 211.86,563.29" type="amenity"/>
   <poly color="red" fill="1" id="118704846#1" layer="-1.00" shape="211.86,563.29 184.94,521.86 189.61,518.83 187.89,516.26 187.11,515.08 177.72,521.36 171.30,511.76 184.55,502.88 190.98,512.49 188.88,513.89 189.61,514.99 191.40,517.66 198.05,513.34 217.25,542.88 224.74,554.41 224.96,554.77 211.86,563.29" type="building"/>
   <poly color="237,199,199" fill="1" id="121713543" layer="-1.00" shape="95.57,408.41 95.23,409.90 92.13,409.19 92.47,407.69 82.74,405.46 85.62,392.93 105.53,397.50 107.37,389.48 117.19,391.74 112.47,412.29 95.57,408.41" type="amenity"/>
   <poly color="red" fill="1" id="121713543#1" layer="-1.00" shape="95.57,408.41 95.23,409.90 92.13,409.19 92.47,407.69 82.74,405.46 85.62,392.93 105.53,397.50 107.37,389.48 117.19,391.74 112.47,412.29 95.57,408.41" type="building"/>
   <poly color="237,199,199" fill="1" id="121736935" layer="-1.00" shape="551.61,761.97 551.03,763.45 550.09,763.09 550.68,761.60 547.28,760.28 546.69,761.76 545.80,761.41 546.38,759.92 543.04,758.61 542.46,760.09 541.54,759.73 542.12,758.24 538.36,756.77 537.78,758.25 536.91,757.92 537.50,756.43 533.03,754.67 531.51,755.26 531.17,754.42 532.46,753.91 534.27,749.30 533.02,748.81 533.37,747.92 534.59,748.40 537.35,741.36 536.04,740.84 536.37,739.99 537.67,740.50 540.41,733.48 541.26,733.82 540.47,735.85 544.68,737.50 545.23,736.11 546.12,736.46 545.58,737.85 548.88,739.14 549.44,737.73 550.37,738.10 549.82,739.50 553.74,741.03 554.30,739.60 556.77,740.56 559.36,741.58 558.80,743.00 562.14,744.32 562.71,742.86 563.66,743.22 563.09,744.68 566.46,746.00 567.03,744.53 567.99,744.90 567.42,746.37 570.69,747.65 571.27,746.16 572.19,746.52 571.61,748.00 574.94,749.31 575.54,747.81 576.43,748.16 575.84,749.66 577.06,750.14 576.76,750.91 575.49,750.40 573.80,754.69 577.28,756.05 577.81,754.69 578.65,755.02 578.16,756.28 581.48,757.58 581.97,756.32 582.81,756.65 582.31,757.94 585.65,759.24 586.16,757.94 587.04,758.29 586.48,759.76 588.88,760.69 589.86,759.58 590.38,760.03 589.39,761.17 590.61,763.90 592.22,763.93 592.20,764.62 590.63,764.59 589.78,767.64 590.73,768.58 590.16,769.16 589.20,768.22 586.47,769.38 586.43,770.99 585.74,770.98 573.48,765.83 570.00,764.35 567.77,770.03 567.01,769.73 567.60,768.26 564.29,766.96 563.71,768.43 562.76,768.06 563.34,766.58 560.04,765.29 559.46,766.77 558.63,766.44 559.21,764.97 555.88,763.65 555.18,765.09 554.34,764.75 554.92,763.28 551.61,761.97" type="amenity"/>
   <poly color="red" fill="1" id="121736935#1" layer="-1.00" shape="551.61,761.97 551.03,763.45 550.09,763.09 550.68,761.60 547.28,760.28 546.69,761.76 545.80,761.41 546.38,759.92 543.04,758.61 542.46,760.09 541.54,759.73 542.12,758.24 538.36,756.77 537.78,758.25 536.91,757.92 537.50,756.43 533.03,754.67 531.51,755.26 531.17,754.42 532.46,753.91 534.27,749.30 533.02,748.81 533.37,747.92 534.59,748.40 537.35,741.36 536.04,740.84 536.37,739.99 537.67,740.50 540.41,733.48 541.26,733.82 540.47,735.85 544.68,737.50 545.23,736.11 546.12,736.46 545.58,737.85 548.88,739.14 549.44,737.73 550.37,738.10 549.82,739.50 553.74,741.03 554.30,739.60 556.77,740.56 559.36,741.58 558.80,743.00 562.14,744.32 562.71,742.86 563.66,743.22 563.09,744.68 566.46,746.00 567.03,744.53 567.99,744.90 567.42,746.37 570.69,747.65 571.27,746.16 572.19,746.52 571.61,748.00 574.94,749.31 575.54,747.81 576.43,748.16 575.84,749.66 577.06,750.14 576.76,750.91 575.49,750.40 573.80,754.69 577.28,756.05 577.81,754.69 578.65,755.02 578.16,756.28 581.48,757.58 581.97,756.32 582.81,756.65 582.31,757.94 585.65,759.24 586.16,757.94 587.04,758.29 586.48,759.76 588.88,760.69 589.86,759.58 590.38,760.03 589.39,761.17 590.61,763.90 592.22,763.93 592.20,764.62 590.63,764.59 589.78,767.64 590.73,768.58 590.16,769.16 589.20,768.22 586.47,769.38 586.43,770.99 585.74,770.98 573.48,765.83 570.00,764.35 567.77,770.03 567.01,769.73 567.60,768.26 564.29,766.96 563.71,768.43 562.76,768.06 563.34,766.58 560.04,765.29 559.46,766.77 558.63,766.44 559.21,764.97 555.88,763.65 555.18,765.09 554.34,764.75 554.92,763.28 551.61,761.97" type="building"/>
   <poly color="237,199,199" fill="1" id="121736959" layer="-1.00" shape="693.69,723.78 699.50,735.06 723.51,770.39 735.86,760.98 748.48,777.39 705.33,799.56 709.96,808.99 687.58,810.33 660.92,805.64 662.26,804.87 663.22,799.83 660.82,801.03 657.60,799.04 649.33,803.03 628.62,765.55 638.52,759.96 638.12,743.41 655.49,741.40 655.37,737.50 665.01,735.69 664.91,731.89 674.22,730.33 674.06,726.51 693.69,723.78" type="amenity"/>
   <poly color="red" fill="1" id="121736959#1" layer="-1.00" shape="693.69,723.78 699.50,735.06 723.51,770.39 735.86,760.98 748.48,777.39 705.33,799.56 709.96,808.99 687.58,810.33 660.92,805.64 662.26,804.87 663.22,799.83 660.82,801.03 657.60,799.04 649.33,803.03 628.62,765.55 638.52,759.96 638.12,743.41 655.49,741.40 655.37,737.50 665.01,735.69 664.91,731.89 674.22,730.33 674.06,726.51 693.69,723.78" type="building"/>
   <poly color="red" fill="1" id="121736964" layer="-1.00" shape="585.30,714.38 595.88,702.70 601.56,693.58 601.25,693.05 603.43,691.64 603.61,691.48 608.61,687.79 610.32,686.57 610.60,685.70 611.12,685.81 611.06,686.14 614.11,686.77 614.18,686.47 614.51,686.54 614.82,685.02 614.53,684.96 614.63,684.50 614.88,684.56 617.78,682.77 617.82,682.64 618.31,682.77 618.21,683.13 619.73,683.52 619.83,683.14 620.19,683.23 615.11,737.27 614.22,737.78 585.30,714.38" type="building"/>
   <poly color="red" fill="1" id="121736970" layer="-1.00" shape="505.34,805.98 506.36,798.84 508.25,789.05 532.57,792.52 532.26,794.16 546.13,796.13 545.38,801.82 545.04,804.63 523.58,801.42 522.57,808.57 505.34,805.98" type="building"/>
   <poly color="red" fill="1" id="121736977" layer="-1.00" shape="507.01,702.52 499.33,682.75 521.91,674.24 532.11,690.56 521.86,696.92 507.01,702.52" type="building"/>
   <poly color="red" fill="1" id="121736983" layer="-1.00" shape="566.81,775.01 567.77,774.65 568.11,775.15 570.51,773.49 573.48,765.83 585.74,770.98 581.75,780.82 566.81,775.01" type="building"/>
   <poly color="237,199,199" fill="0" id="121760996" layer="-1.00" shape="16.67,670.36 32.01,678.60 26.22,691.15 32.94,694.40 27.28,706.01 28.45,706.71 38.10,710.09 27.34,742.28 20.46,762.88" type="amenity"/>
   <poly color="184,184,179" fill="0" id="121863632" layer="-1.00" shape="9.81,234.84 13.09,235.99 9.83,241.71 28.85,252.30 32.55,247.41 34.18,245.63 36.85,242.70 25.78,235.79 33.52,223.24 86.12,253.96 88.84,249.88 93.96,242.85 101.16,232.56 82.91,215.74 62.76,198.72 46.17,183.38 34.92,200.02 26.34,212.43 21.94,219.56 11.88,214.57 3.38,227.47" type="parking"/>
   <poly color="184,184,179" fill="1" id="121863633" layer="-1.00" shape="17.67,183.73 15.60,186.58 9.67,194.72 12.86,196.81 9.64,201.74 13.26,204.02 21.01,209.45 40.45,181.51 17.67,183.73" type="parking"/>
   <poly color="red" fill="1" id="121863634" layer="-1.00" shape="36.66,321.97 36.68,320.27 31.19,319.84 31.80,313.12 36.72,313.42 37.01,308.77 58.85,309.00 58.83,309.56 61.62,309.59 61.59,311.59 62.87,311.60 62.81,318.09 62.79,318.75 58.78,318.70 58.75,322.31 36.66,321.97" type="building"/>
   <poly color="red" fill="1" id="121863635" layer="-1.00" shape="89.49,265.10 86.88,264.37 82.87,262.50 80.60,266.45 27.44,235.65 33.52,225.15 86.68,255.93 86.28,256.65 89.94,258.28 94.94,259.34 99.27,259.62 103.25,259.59 103.13,266.24 97.57,266.28 93.61,265.96 89.49,265.10" type="building"/>
   <poly color="184,184,179" fill="0" id="121863678" layer="-1.00" shape="10.27,330.15 13.16,330.43 10.91,350.33 3.98,359.46" type="parking"/>
   <poly color="184,184,179" fill="1" id="121863754" layer="-1.00" shape="71.91,385.68 70.01,394.93 82.96,397.94 84.39,391.26 104.32,395.67 106.20,387.70 117.45,390.44 120.34,379.25 133.62,376.24 135.25,369.66 93.83,359.42 86.41,389.26 71.91,385.68" type="parking"/>
   <poly color="207,245,201" fill="0" id="121864097" layer="-2.00" shape="312.75,555.74 310.23,542.56 309.45,529.33 285.50,535.54 246.69,549.41 212.59,568.13" type="leisure"/>
   <poly color="red" fill="1" id="121864098" layer="-1.00" shape="486.30,636.93 483.13,628.10 504.35,620.48 507.52,629.30 486.30,636.93" type="building"/>
   <poly color="red" fill="1" id="121864099" layer="-1.00" shape="521.20,590.46 520.57,592.93 517.01,592.02 517.62,589.63 513.45,588.56 517.05,574.62 528.16,577.34 524.55,591.32 521.20,590.46" type="building"/>
   <poly color="red" fill="1" id="121864100" layer="-1.00" shape="254.23,601.47 261.19,596.62 263.57,600.03 279.46,588.96 284.54,596.25 269.13,606.97 276.95,618.20 274.84,619.94 274.97,620.10 269.96,624.06 254.23,601.47" type="building"/>
   <poly color="red" fill="1" id="121864101" layer="-1.00" shape="528.36,624.67 528.27,624.62 526.62,622.17 514.22,604.21 519.34,600.75 527.80,613.28 530.24,613.26 538.18,604.27 543.92,606.58 540.04,611.11 532.79,619.55 528.36,624.67" type="building"/>
   <poly color="237,199,199" fill="1" id="121864922" layer="-1.00" shape="182.97,788.29 182.94,788.72 173.12,788.06 173.26,785.93 177.90,716.88 187.73,717.54 187.69,718.02 187.38,720.20 184.00,774.62 182.97,788.29" type="amenity"/>
   <poly color="red" fill="1" id="121864922#1" layer="-1.00" shape="182.97,788.29 182.94,788.72 173.12,788.06 173.26,785.93 177.90,716.88 187.73,717.54 187.69,718.02 187.38,720.20 184.00,774.62 182.97,788.29" type="building"/>
   <poly color="red" fill="1" id="121864924" layer="-1.00" shape="191.51,789.08 192.21,779.95 191.84,779.91 192.13,775.95 192.50,775.97 193.15,767.01 192.93,767.01 193.79,754.64 194.00,754.67 194.69,745.50 194.37,745.48 194.63,741.80 194.94,741.83 195.85,729.29 195.00,729.23 195.77,717.96 200.30,718.26 200.34,717.96 206.14,718.36 206.11,718.69 212.50,719.12 211.74,730.40 210.92,730.33 210.69,731.23 209.93,731.79 209.37,731.92 209.04,731.86 208.29,742.54 208.65,742.57 208.38,746.51 208.11,746.48 207.61,753.69 207.53,754.86 207.46,755.81 206.59,768.03 205.96,776.89 206.26,776.91 205.98,780.88 205.67,780.86 204.98,790.79 191.51,789.08" type="building"/>
   <poly color="red" fill="1" id="121864925" layer="-1.00" shape="206.20,790.27 207.48,771.48 211.07,771.72 211.31,768.13 210.26,768.06 210.23,768.32 206.59,768.03 207.46,755.81 208.33,755.87 208.39,755.35 207.90,755.31 207.95,754.90 207.53,754.86 207.61,753.69 208.03,753.73 208.14,752.25 210.19,752.40 210.15,752.88 210.54,752.92 210.60,752.10 231.59,753.52 233.57,723.90 236.56,724.07 236.79,720.75 249.61,721.61 249.52,722.98 247.13,758.35 237.59,757.71 237.55,758.33 239.44,758.47 238.64,769.75 226.67,768.86 226.64,769.25 224.58,769.10 224.31,772.59 226.33,772.73 225.04,791.52 206.20,790.27" type="building"/>
   <poly color="red" fill="1" id="125820620" layer="-1.00" shape="451.72,685.08 450.44,676.61 449.75,674.96 453.26,674.33 460.14,673.10 461.70,683.67 451.72,685.08" type="building"/>