<?xml version="1.0" encoding="utf-8"?><!-- generated on 10/11/17 17:56:04 by SUMO netconvert Version 0.25.0
<?xml version="1.0" encoding="UTF-8"?>

<configuration xmlns:xsi="http://www.w3.org/2001/XMLSchema-instance" xsi:noNamespaceSchemaLocation="http://sumo.dlr.de/xsd/netconvertConfiguration.xsd">

    <input>
        <type-files value="osmNetconvert.typ.xml"/>
        <osm-files value="MS_Altstadt_historical_800.osm"/>
    </input>

    <output>
        <output-file value="MS_Altstadt_historical_800.net.xml"/>
    </output>

    <projection>
        <proj.utm value="true"/>
    </projection>

    <edge_removal>
        <remove-edges.by-type value="highway.track,highway.unsurfaced,highway.raceway,highway.bridleway,highway.path,highway.footway,highway.pedestrian,highway.cycleway,highway.step,highway.steps,highway.stairs,highway.bus_guideway,highway.ford,railway.rail,railway.tram,railway.light_rail,railway.subway,railway.preserved,railway.narrow_gauge,railway.monorail,railway.funicular"/>
    </edge_removal>

</configuration>
-->
<net version="0.25">
   <location convBoundary="0.00,0.00,778.12,820.26" netOffset="-405158.46,-5757242.42" origBoundary="7.619708,51.957908,7.630891,51.965195" projParameter="+proj=utm +zone=32 +ellps=WGS84 +datum=WGS84 +units=m +no_defs"/>
   <type allow="pedestrian" id="highway.bridleway" numLanes="1" oneway="1" priority="1" speed="2.78" width="2.00"/>
   <type allow="bus" id="highway.bus_guideway" numLanes="1" oneway="1" priority="1" speed="8.33"/>
   <type allow="bicycle" id="highway.cycleway" numLanes="1" oneway="0" priority="1" speed="5.56" width="1.00"/>
   <type allow="pedestrian" id="highway.footway" numLanes="1" oneway="1" priority="1" speed="8.33" width="2.00"/>
   <type allow="army" id="highway.ford" numLanes="1" oneway="0" priority="1" speed="2.78"/>
   <type disallow="tram rail_urban rail rail_electric ship" id="highway.living_street" numLanes="1" oneway="0" priority="3" speed="2.78"/>
   <type allow="private emergency authority army vip passenger hov taxi bus coach delivery truck trailer motorcycle evehicle custom1 custom2" id="highway.motorway" numLanes="2" oneway="1" priority="13" speed="44.44"/>
   <type allow="private emergency authority army vip passenger hov taxi bus coach delivery truck trailer motorcycle evehicle custom1 custom2" id="highway.motorway_link" numLanes="1" oneway="1" priority="12" speed="22.22"/>
   <type allow="bicycle pedestrian" id="highway.path" numLanes="1" oneway="1" priority="1" speed="2.78" width="2.00"/>
   <type allow="pedestrian" id="highway.pedestrian" numLanes="1" oneway="1" priority="1" speed="8.33" width="2.00"/>
   <type disallow="tram rail_urban rail rail_electric ship" id="highway.primary" numLanes="2" oneway="0" priority="9" speed="27.78"/>
   <type disallow="tram rail_urban rail rail_electric ship" id="highway.primary_link" numLanes="1" oneway="0" priority="8" speed="22.22"/>
   <type allow="vip" id="highway.raceway" numLanes="2" oneway="0" priority="14" speed="83.33"/>
   <type disallow="tram rail_urban rail rail_electric ship" id="highway.residential" numLanes="1" oneway="0" priority="4" speed="13.89"/>
   <type disallow="tram rail_urban rail rail_electric ship" id="highway.secondary" numLanes="2" oneway="0" priority="7" speed="27.78"/>
   <type disallow="tram rail_urban rail rail_electric ship" id="highway.secondary_link" numLanes="1" oneway="0" priority="6" speed="22.22"/>
   <type allow="delivery bicycle pedestrian" id="highway.service" numLanes="1" oneway="0" priority="2" speed="5.56"/>
   <type disallow="tram rail_urban rail rail_electric ship" id="highway.services" numLanes="1" oneway="0" priority="1" speed="8.33"/>
   <type allow="pedestrian" id="highway.stairs" numLanes="1" oneway="1" priority="1" speed="1.39" width="2.00"/>
   <type allow="pedestrian" id="highway.step" numLanes="1" oneway="1" priority="1" speed="1.39" width="2.00"/>
   <type allow="pedestrian" id="highway.steps" numLanes="1" oneway="1" priority="1" speed="1.39" width="2.00"/>
   <type disallow="tram rail_urban rail rail_electric ship" id="highway.tertiary" numLanes="1" oneway="0" priority="6" speed="22.22"/>
   <type disallow="tram rail_urban rail rail_electric ship" id="highway.tertiary_link" numLanes="1" oneway="0" priority="5" speed="22.22"/>
   <type disallow="tram rail_urban rail rail_electric ship" id="highway.track" numLanes="1" oneway="0" priority="1" speed="5.56"/>
   <type disallow="tram rail_urban rail rail_electric bicycle pedestrian ship" id="highway.trunk" numLanes="2" oneway="0" priority="11" speed="27.78"/>
   <type disallow="tram rail_urban rail rail_electric bicycle pedestrian ship" id="highway.trunk_link" numLanes="1" oneway="0" priority="10" speed="22.22"/>
   <type disallow="tram rail_urban rail rail_electric ship" id="highway.unclassified" numLanes="1" oneway="0" priority="5" speed="13.89"/>
   <type disallow="tram rail_urban rail rail_electric ship" id="highway.unsurfaced" numLanes="1" oneway="0" priority="1" speed="8.33"/>
   <type allow="rail_urban" id="railway.light_rail" numLanes="1" oneway="1" priority="15" speed="27.78"/>
   <type allow="rail" id="railway.preserved" numLanes="1" oneway="1" priority="15" speed="27.78"/>
   <type allow="rail rail_electric" id="railway.rail" numLanes="1" oneway="1" priority="15" speed="83.33"/>
   <type allow="rail_urban" id="railway.subway" numLanes="1" oneway="1" priority="15" speed="27.78"/>
   <type allow="tram" id="railway.tram" numLanes="1" oneway="1" priority="15" speed="13.89"/>
   <edge function="internal" id=":1117942164_0">
      <lane allow="delivery bicycle pedestrian" id=":1117942164_0_0" index="0" length="5.69" shape="246.32,232.50 245.29,231.67 244.09,231.37 242.71,231.61 241.15,232.37" speed="9.72"/>
   </edge>
   <edge function="internal" id=":1117942164_1">
      <lane disallow="tram rail_urban rail rail_electric ship" id=":1117942164_1_0" index="0" length="9.59" shape="246.32,232.50 240.07,225.23" speed="13.89"/>
   </edge>
   <edge function="internal" id=":1117942164_2">
      <lane disallow="tram rail_urban rail rail_electric ship" id=":1117942164_2_0" index="0" length="2.41" shape="246.32,232.50 246.14,231.02 246.50,230.17" speed="13.89"/>
   </edge>
   <edge function="internal" id=":1117942164_9">
      <lane id=":1117942164_9_0" index="0" length="2.41" shape="246.50,230.17 247.39,229.95 248.83,230.35" speed="13.89"/>
   </edge>
   <edge function="internal" id=":1117942164_3">
      <lane disallow="tram rail_urban rail rail_electric ship" id=":1117942164_3_0" index="0" length="9.60" shape="242.56,223.08 248.83,230.35" speed="13.89"/>
   </edge>
   <edge function="internal" id=":1117942164_4">
      <lane allow="delivery bicycle pedestrian" id=":1117942164_4_0" index="0" length="5.44" shape="242.56,223.08 244.25,225.71 244.56,228.00" speed="9.72"/>
   </edge>
   <edge function="internal" id=":1117942164_5">
      <lane disallow="tram rail_urban rail rail_electric ship" id=":1117942164_5_0" index="0" length="2.41" shape="242.56,223.08 242.75,224.55 242.39,225.40" speed="13.89"/>
   </edge>
   <edge function="internal" id=":1117942164_10">
      <lane id=":1117942164_10_0" index="0" length="5.71" shape="244.56,228.00 244.57,228.13 243.54,230.35 241.15,232.37" speed="9.72"/>
   </edge>
   <edge function="internal" id=":1117942164_11">
      <lane id=":1117942164_11_0" index="0" length="2.41" shape="242.39,225.40 241.50,225.63 240.07,225.23" speed="13.89"/>
   </edge>
   <edge function="internal" id=":1117942164_6">
      <lane disallow="tram rail_urban rail rail_electric ship" id=":1117942164_6_0" index="0" length="5.20" shape="239.41,229.57 240.52,228.63 241.00,227.59 240.85,226.46 240.07,225.23" speed="9.72"/>
   </edge>
   <edge function="internal" id=":1117942164_7">
      <lane disallow="tram rail_urban rail rail_electric ship" id=":1117942164_7_0" index="0" length="10.44" shape="239.41,229.57 242.14,228.28 244.61,227.99 246.84,228.68 248.83,230.35" speed="9.72"/>
   </edge>
   <edge function="internal" id=":1117942164_8">
      <lane allow="delivery bicycle pedestrian" id=":1117942164_8_0" index="0" length="4.82" shape="239.41,229.57 240.90,229.61 241.68,230.09 241.77,231.01 241.15,232.37" speed="5.56"/>
   </edge>
   <edge function="internal" id=":1119368249_0">
      <lane allow="delivery bicycle pedestrian" id=":1119368249_0_0" index="0" length="4.82" shape="248.05,254.64 246.56,254.60 245.77,254.12 245.68,253.20 246.29,251.84" speed="5.56"/>
   </edge>
   <edge function="internal" id=":1119368313_0">
      <lane allow="delivery bicycle pedestrian" id=":1119368313_0_0" index="0" length="9.51" shape="342.56,267.24 333.08,268.06" speed="5.56"/>
   </edge>
   <edge function="internal" id=":1119368313_1">
      <lane allow="delivery bicycle pedestrian" id=":1119368313_1_0" index="0" length="10.38" shape="342.56,267.24 339.94,267.04 337.88,265.98 336.35,264.04 335.37,261.24" speed="5.56"/>
   </edge>
   <edge function="internal" id=":1119368313_2">
      <lane allow="delivery bicycle pedestrian" id=":1119368313_2_0" index="0" length="4.82" shape="342.56,267.24 341.26,266.52 340.78,265.73 341.12,264.87 342.28,263.95" speed="5.56"/>
   </edge>
   <edge function="internal" id=":1119368313_3">
      <lane allow="delivery bicycle pedestrian" id=":1119368313_3_0" index="0" length="5.56" shape="338.60,260.54 339.13,262.12 339.92,263.21 340.97,263.82 342.28,263.95" speed="5.56"/>
   </edge>
   <edge function="internal" id=":1119368313_4">
      <lane allow="delivery bicycle pedestrian" id=":1119368313_4_0" index="0" length="10.97" shape="338.60,260.54 338.82,263.59 337.97,265.86 336.06,267.35 333.08,268.06" speed="5.56"/>
   </edge>
   <edge function="internal" id=":1119368313_5">
      <lane allow="delivery bicycle pedestrian" id=":1119368313_5_0" index="0" length="4.82" shape="338.60,260.54 338.05,261.92 337.34,262.50 336.44,262.27 335.37,261.24" speed="5.56"/>
   </edge>
   <edge function="internal" id=":1119368313_6">
      <lane allow="delivery bicycle pedestrian" id=":1119368313_6_0" index="0" length="5.15" shape="332.78,264.77 334.18,264.44 335.08,263.74 335.48,262.67 335.37,261.24" speed="5.56"/>
   </edge>
   <edge function="internal" id=":1119368313_7">
      <lane allow="delivery bicycle pedestrian" id=":1119368313_7_0" index="0" length="9.54" shape="332.78,264.77 342.28,263.95" speed="5.56"/>
   </edge>
   <edge function="internal" id=":1119368313_8">
      <lane allow="delivery bicycle pedestrian" id=":1119368313_8_0" index="0" length="4.82" shape="332.78,264.77 334.09,265.48 334.57,266.27 334.24,267.13 333.08,268.06" speed="5.56"/>
   </edge>
   <edge function="internal" id=":1119384378_0">
      <lane allow="delivery bicycle pedestrian" id=":1119384378_0_0" index="0" length="9.26" shape="188.04,268.20 183.49,260.14" speed="5.56"/>
   </edge>
   <edge function="internal" id=":1119384378_1">
      <lane allow="delivery bicycle pedestrian" id=":1119384378_1_0" index="0" length="10.20" shape="188.04,268.20 187.12,265.63 187.24,263.32 188.39,261.28 190.58,259.49" speed="5.56"/>
   </edge>
   <edge function="internal" id=":1119384378_2">
      <lane allow="delivery bicycle pedestrian" id=":1119384378_2_0" index="0" length="4.82" shape="188.04,268.20 188.19,266.72 188.72,265.97 189.64,265.94 190.95,266.65" speed="5.56"/>
   </edge>
   <edge function="internal" id=":1119384378_3">
      <lane allow="delivery bicycle pedestrian" id=":1119384378_3_0" index="0" length="5.11" shape="192.30,262.31 191.18,263.21 190.58,264.24 190.51,265.38 190.95,266.65" speed="5.56"/>
   </edge>
   <edge function="internal" id=":1119384378_4">
      <lane allow="delivery bicycle pedestrian" id=":1119384378_4_0" index="0" length="10.37" shape="192.30,262.31 189.68,263.44 187.34,263.45 185.28,262.35 183.49,260.14" speed="5.56"/>
   </edge>
   <edge function="internal" id=":1119384378_5">
      <lane allow="delivery bicycle pedestrian" id=":1119384378_5_0" index="0" length="4.82" shape="192.30,262.31 190.81,262.25 190.03,261.76 189.95,260.84 190.58,259.49" speed="5.56"/>
   </edge>
   <edge function="internal" id=":1119384378_6">
      <lane allow="delivery bicycle pedestrian" id=":1119384378_6_0" index="0" length="5.01" shape="186.32,258.44 187.18,259.51 188.18,260.04 189.31,260.04 190.58,259.49" speed="5.56"/>
   </edge>
   <edge function="internal" id=":1119384378_7">
      <lane allow="delivery bicycle pedestrian" id=":1119384378_7_0" index="0" length="9.42" shape="186.32,258.44 190.95,266.65" speed="5.56"/>
   </edge>
   <edge function="internal" id=":1119384378_8">
      <lane allow="delivery bicycle pedestrian" id=":1119384378_8_0" index="0" length="4.82" shape="186.32,258.44 186.25,259.93 185.75,260.71 184.83,260.78 183.49,260.14" speed="5.56"/>
   </edge>
   <edge function="internal" id=":1119384445_0">
      <lane allow="delivery bicycle pedestrian" id=":1119384445_0_0" index="0" length="4.82" shape="186.88,234.72 188.36,234.71 189.17,235.15 189.29,236.07 188.74,237.45" speed="5.56"/>
   </edge>
   <edge function="internal" id=":1125560242_0">
      <lane allow="delivery bicycle pedestrian" id=":1125560242_0_0" index="0" length="5.00" shape="278.55,241.71 277.54,240.78 276.48,240.39 275.36,240.55 274.18,241.26" speed="5.56"/>
   </edge>
   <edge function="internal" id=":1125560242_1">
      <lane allow="delivery bicycle pedestrian" id=":1125560242_1_0" index="0" length="10.32" shape="278.55,241.71 277.09,239.28 276.76,236.97 277.56,234.78 279.47,232.71" speed="5.56"/>
   </edge>
   <edge function="internal" id=":1125560242_2">
      <lane allow="delivery bicycle pedestrian" id=":1125560242_2_0" index="0" length="4.82" shape="278.55,241.71 278.41,240.23 278.79,239.39 279.69,239.19 281.11,239.63" speed="5.56"/>
   </edge>
   <edge function="internal" id=":1125560242_3">
      <lane allow="delivery bicycle pedestrian" id=":1125560242_3_0" index="0" length="5.00" shape="281.56,235.27 280.63,236.27 280.24,237.33 280.40,238.45 281.11,239.63" speed="5.56"/>
   </edge>
   <edge function="internal" id=":1125560242_4">
      <lane allow="delivery bicycle pedestrian" id=":1125560242_4_0" index="0" length="9.50" shape="281.56,235.27 274.18,241.26" speed="5.56"/>
   </edge>
   <edge function="internal" id=":1125560242_5">
      <lane allow="delivery bicycle pedestrian" id=":1125560242_5_0" index="0" length="4.82" shape="281.56,235.27 280.08,235.41 279.24,235.03 279.03,234.13 279.47,232.71" speed="5.56"/>
   </edge>
   <edge function="internal" id=":1125560242_6">
      <lane allow="delivery bicycle pedestrian" id=":1125560242_6_0" index="0" length="9.50" shape="272.10,238.70 279.47,232.71" speed="5.56"/>
   </edge>
   <edge function="internal" id=":1125560242_7">
      <lane allow="delivery bicycle pedestrian" id=":1125560242_7_0" index="0" length="10.32" shape="272.10,238.70 274.53,237.24 276.84,236.91 279.03,237.71 281.11,239.63" speed="5.56"/>
   </edge>
   <edge function="internal" id=":1125560242_8">
      <lane allow="delivery bicycle pedestrian" id=":1125560242_8_0" index="0" length="4.82" shape="272.10,238.70 273.58,238.56 274.43,238.94 274.63,239.84 274.18,241.26" speed="5.56"/>
   </edge>
   <edge function="internal" id=":1125560243_0">
      <lane allow="delivery bicycle pedestrian" id=":1125560243_0_0" index="0" length="4.82" shape="289.78,250.31 289.92,251.79 289.54,252.63 288.64,252.83 287.22,252.39" speed="5.56"/>
   </edge>
   <edge function="internal" id=":1125560245_0">
      <lane allow="delivery bicycle pedestrian" id=":1125560245_0_0" index="0" length="4.82" shape="303.14,241.17 303.18,242.66 302.75,243.47 301.84,243.61 300.45,243.08" speed="5.56"/>
   </edge>
   <edge function="internal" id=":1125560251_0">
      <lane allow="delivery bicycle pedestrian" id=":1125560251_0_0" index="0" length="5.08" shape="291.89,230.99 290.92,229.97 289.88,229.53 288.75,229.67 287.54,230.40" speed="5.56"/>
   </edge>
   <edge function="internal" id=":1125560251_1">
      <lane allow="delivery bicycle pedestrian" id=":1125560251_1_0" index="0" length="10.35" shape="291.89,230.99 290.54,228.42 290.25,226.04 291.02,223.84 292.85,221.83" speed="5.56"/>
   </edge>
   <edge function="internal" id=":1125560251_2">
      <lane allow="delivery bicycle pedestrian" id=":1125560251_2_0" index="0" length="4.82" shape="291.89,230.99 291.85,229.50 292.28,228.69 293.20,228.55 294.58,229.08" speed="5.56"/>
   </edge>
   <edge function="internal" id=":1125560251_3">
      <lane allow="delivery bicycle pedestrian" id=":1125560251_3_0" index="0" length="5.28" shape="294.93,224.40 294.03,225.40 293.68,226.51 293.86,227.74 294.58,229.08" speed="5.56"/>
   </edge>
   <edge function="internal" id=":1125560251_4">
      <lane allow="delivery bicycle pedestrian" id=":1125560251_4_0" index="0" length="9.52" shape="294.93,224.40 287.54,230.40" speed="5.56"/>
   </edge>
   <edge function="internal" id=":1125560251_5">
      <lane allow="delivery bicycle pedestrian" id=":1125560251_5_0" index="0" length="4.82" shape="294.93,224.40 293.45,224.53 292.61,224.15 292.41,223.25 292.85,221.83" speed="5.56"/>
   </edge>
   <edge function="internal" id=":1125560251_6">
      <lane allow="delivery bicycle pedestrian" id=":1125560251_6_0" index="0" length="9.52" shape="285.46,227.84 292.85,221.83" speed="5.56"/>
   </edge>
   <edge function="internal" id=":1125560251_7">
      <lane allow="delivery bicycle pedestrian" id=":1125560251_7_0" index="0" length="10.66" shape="285.46,227.84 287.99,226.32 290.36,226.02 292.55,226.94 294.58,229.08" speed="5.56"/>
   </edge>
   <edge function="internal" id=":1125560251_8">
      <lane allow="delivery bicycle pedestrian" id=":1125560251_8_0" index="0" length="4.82" shape="285.46,227.84 286.94,227.70 287.78,228.08 287.98,228.98 287.54,230.40" speed="5.56"/>
   </edge>
   <edge function="internal" id=":1180629035_0">
      <lane allow="delivery bicycle pedestrian" id=":1180629035_0_0" index="0" length="4.82" shape="321.88,578.37 320.40,578.25 319.63,577.73 319.60,576.81 320.28,575.48" speed="5.56"/>
   </edge>
   <edge function="internal" id=":1194774763_0">
      <lane allow="delivery bicycle pedestrian" id=":1194774763_0_0" index="0" length="0.10" shape="370.51,266.41 370.56,266.41" speed="5.56"/>
   </edge>
   <edge function="internal" id=":1194774763_1">
      <lane allow="delivery bicycle pedestrian" id=":1194774763_1_0" index="0" length="2.41" shape="370.51,266.41 369.30,265.54 368.91,264.70" speed="5.56"/>
   </edge>
   <edge function="internal" id=":1194774763_4">
      <lane id=":1194774763_4_0" index="0" length="2.41" shape="368.91,264.70 369.35,263.89 370.62,263.11" speed="5.56"/>
   </edge>
   <edge function="internal" id=":1194774763_2">
      <lane allow="delivery bicycle pedestrian" id=":1194774763_2_0" index="0" length="0.10" shape="370.59,263.11 370.62,263.11" speed="5.56"/>
   </edge>
   <edge function="internal" id=":1194774763_3">
      <lane allow="delivery bicycle pedestrian" id=":1194774763_3_0" index="0" length="2.41" shape="370.59,263.11 371.82,263.95 372.23,264.77" speed="5.56"/>
   </edge>
   <edge function="internal" id=":1194774763_5">
      <lane id=":1194774763_5_0" index="0" length="2.41" shape="372.23,264.77 371.81,265.60 370.56,266.41" speed="5.56"/>
   </edge>
   <edge function="internal" id=":1194774804_0">
      <lane disallow="tram rail_urban rail rail_electric ship" id=":1194774804_0_0" index="0" length="0.10" shape="369.82,310.27 369.82,310.27" speed="4.17"/>
   </edge>
   <edge function="internal" id=":1202349367_0">
      <lane disallow="tram rail_urban rail rail_electric ship" id=":1202349367_0_0" index="0" length="0.10" shape="559.38,414.17 559.38,414.17" speed="13.89"/>
   </edge>
   <edge function="internal" id=":1202349379_0">
      <lane allow="delivery bicycle pedestrian" id=":1202349379_0_0" index="0" length="9.44" shape="378.77,440.98 377.32,431.65" speed="5.56"/>
   </edge>
   <edge function="internal" id=":1202349379_1">
      <lane allow="delivery bicycle pedestrian" id=":1202349379_1_0" index="0" length="9.40" shape="378.77,440.98 378.68,438.17 379.35,436.04 380.80,434.62 383.01,433.88" speed="5.56"/>
   </edge>
   <edge function="internal" id=":1202349379_2">
      <lane allow="delivery bicycle pedestrian" id=":1202349379_2_0" index="0" length="4.82" shape="378.77,440.98 379.40,439.64 380.15,439.11 381.03,439.40 382.03,440.50" speed="5.56"/>
   </edge>
   <edge function="internal" id=":1202349379_3">
      <lane allow="delivery bicycle pedestrian" id=":1202349379_3_0" index="0" length="4.84" shape="384.44,437.01 383.22,437.38 382.41,438.09 382.01,439.13 382.03,440.50" speed="5.56"/>
   </edge>
   <edge function="internal" id=":1202349379_4">
      <lane allow="delivery bicycle pedestrian" id=":1202349379_4_0" index="0" length="10.13" shape="384.44,437.01 381.71,437.01 379.61,436.12 378.14,434.33 377.32,431.65" speed="5.56"/>
   </edge>
   <edge function="internal" id=":1202349379_5">
      <lane allow="delivery bicycle pedestrian" id=":1202349379_5_0" index="0" length="5.03" shape="384.44,437.01 382.91,436.77 382.16,436.16 382.19,435.20 383.01,433.88" speed="5.56"/>
   </edge>
   <edge function="internal" id=":1202349379_6">
      <lane allow="delivery bicycle pedestrian" id=":1202349379_6_0" index="0" length="4.12" shape="380.58,431.13 380.91,432.44 381.43,433.34 382.13,433.82 383.01,433.88" speed="5.56"/>
   </edge>
   <edge function="internal" id=":1202349379_7">
      <lane allow="delivery bicycle pedestrian" id=":1202349379_7_0" index="0" length="9.48" shape="380.58,431.13 382.03,440.50" speed="5.56"/>
   </edge>
   <edge function="internal" id=":1202349379_8">
      <lane allow="delivery bicycle pedestrian" id=":1202349379_8_0" index="0" length="4.82" shape="380.58,431.13 379.96,432.48 379.21,433.02 378.33,432.75 377.32,431.65" speed="5.56"/>
   </edge>
   <edge function="internal" id=":1202349382_0">
      <lane disallow="tram rail_urban rail rail_electric ship" id=":1202349382_0_0" index="0" length="9.56" shape="390.14,474.25 380.67,475.52" speed="8.33"/>
   </edge>
   <edge function="internal" id=":1202349382_1">
      <lane allow="delivery bicycle pedestrian" id=":1202349382_1_0" index="0" length="5.28" shape="390.14,474.25 387.32,474.24 385.18,473.32 385.10,473.21" speed="6.95"/>
   </edge>
   <edge function="internal" id=":1202349382_2">
      <lane disallow="tram rail_urban rail rail_electric ship" id=":1202349382_2_0" index="0" length="2.41" shape="390.14,474.25 388.80,473.61 388.28,472.85" speed="8.33"/>
   </edge>
   <edge function="internal" id=":1202349382_9">
      <lane id=":1202349382_9_0" index="0" length="5.07" shape="385.10,473.21 383.70,471.49 382.89,468.75" speed="6.95"/>
   </edge>
   <edge function="internal" id=":1202349382_10">
      <lane id=":1202349382_10_0" index="0" length="2.41" shape="388.28,472.85 388.57,471.97 389.68,470.98" speed="8.33"/>
   </edge>
   <edge function="internal" id=":1202349382_3">
      <lane disallow="tram rail_urban rail rail_electric ship" id=":1202349382_3_0" index="0" length="5.06" shape="386.16,468.27 386.55,469.61 387.27,470.52 388.32,470.97 389.68,470.98" speed="6.95"/>
   </edge>
   <edge function="internal" id=":1202349382_4">
      <lane disallow="tram rail_urban rail rail_electric ship" id=":1202349382_4_0" index="0" length="10.42" shape="386.16,468.27 386.17,471.13 385.26,473.29 383.43,474.76 380.67,475.52" speed="6.95"/>
   </edge>
   <edge function="internal" id=":1202349382_5">
      <lane allow="delivery bicycle pedestrian" id=":1202349382_5_0" index="0" length="4.82" shape="386.16,468.27 385.52,469.61 384.77,470.14 383.89,469.85 382.89,468.75" speed="5.56"/>
   </edge>
   <edge function="internal" id=":1202349382_6">
      <lane allow="delivery bicycle pedestrian" id=":1202349382_6_0" index="0" length="5.02" shape="380.25,472.25 381.58,471.88 382.46,471.17 382.90,470.13 382.89,468.75" speed="6.95"/>
   </edge>
   <edge function="internal" id=":1202349382_7">
      <lane disallow="tram rail_urban rail rail_electric ship" id=":1202349382_7_0" index="0" length="9.52" shape="380.25,472.25 389.68,470.98" speed="8.33"/>
   </edge>
   <edge function="internal" id=":1202349382_8">
      <lane disallow="tram rail_urban rail rail_electric ship" id=":1202349382_8_0" index="0" length="2.41" shape="380.25,472.25 381.58,472.91 382.09,473.67" speed="8.33"/>
   </edge>
   <edge function="internal" id=":1202349382_11">
      <lane id=":1202349382_11_0" index="0" length="2.41" shape="382.09,473.67 381.79,474.54 380.67,475.52" speed="8.33"/>
   </edge>
   <edge function="internal" id=":1202349383_0">
      <lane allow="delivery bicycle pedestrian" id=":1202349383_0_0" index="0" length="0.10" shape="653.11,456.43 653.11,456.43" speed="5.56"/>
   </edge>
   <edge function="internal" id=":1202349383_1">
      <lane allow="delivery bicycle pedestrian" id=":1202349383_1_0" index="0" length="2.41" shape="653.11,456.43 651.66,456.10 650.99,455.47" speed="5.56"/>
   </edge>
   <edge function="internal" id=":1202349383_4">
      <lane id=":1202349383_4_0" index="0" length="2.41" shape="650.99,455.47 651.08,454.55 651.94,453.34" speed="5.56"/>
   </edge>
   <edge function="internal" id=":1202349383_2">
      <lane allow="delivery bicycle pedestrian" id=":1202349383_2_0" index="0" length="0.10" shape="651.95,453.34 651.94,453.34" speed="5.56"/>
   </edge>
   <edge function="internal" id=":1202349383_3">
      <lane allow="delivery bicycle pedestrian" id=":1202349383_3_0" index="0" length="2.41" shape="651.95,453.34 653.40,453.68 654.07,454.30" speed="5.56"/>
   </edge>
   <edge function="internal" id=":1202349383_5">
      <lane id=":1202349383_5_0" index="0" length="2.41" shape="654.07,454.30 653.98,455.22 653.11,456.43" speed="5.56"/>
   </edge>
   <edge function="internal" id=":1202349385_0">
      <lane allow="delivery bicycle pedestrian" id=":1202349385_0_0" index="0" length="4.82" shape="364.97,402.13 363.58,401.60 363.00,400.89 363.22,399.99 364.24,398.91" speed="5.56"/>
   </edge>
   <edge function="internal" id=":1202349393_0">
      <lane allow="delivery bicycle pedestrian" id=":1202349393_0_0" index="0" length="5.07" shape="372.66,403.66 372.24,402.33 371.49,401.48 370.41,401.11 369.02,401.22" speed="5.56"/>
   </edge>
   <edge function="internal" id=":1202349393_1">
      <lane allow="delivery bicycle pedestrian" id=":1202349393_1_0" index="0" length="10.38" shape="372.66,403.66 372.57,400.77 373.37,398.52 375.06,396.91 377.65,395.95" speed="5.56"/>
   </edge>
   <edge function="internal" id=":1202349393_2">
      <lane allow="delivery bicycle pedestrian" id=":1202349393_2_0" index="0" length="4.82" shape="372.66,403.66 373.27,402.30 374.02,401.76 374.90,402.03 375.92,403.11" speed="5.56"/>
   </edge>
   <edge function="internal" id=":1202349393_3">
      <lane allow="delivery bicycle pedestrian" id=":1202349393_3_0" index="0" length="5.21" shape="378.33,399.18 377.07,399.66 376.24,400.48 375.86,401.63 375.92,403.11" speed="5.56"/>
   </edge>
   <edge function="internal" id=":1202349393_4">
      <lane allow="delivery bicycle pedestrian" id=":1202349393_4_0" index="0" length="9.53" shape="378.33,399.18 369.02,401.22" speed="5.56"/>
   </edge>
   <edge function="internal" id=":1202349393_5">
      <lane allow="delivery bicycle pedestrian" id=":1202349393_5_0" index="0" length="4.82" shape="378.33,399.18 376.95,398.63 376.38,397.91 376.61,397.01 377.65,395.95" speed="5.56"/>
   </edge>
   <edge function="internal" id=":1202349393_6">
      <lane allow="delivery bicycle pedestrian" id=":1202349393_6_0" index="0" length="9.58" shape="368.29,398.00 377.65,395.95" speed="5.56"/>
   </edge>
   <edge function="internal" id=":1202349393_7">
      <lane allow="delivery bicycle pedestrian" id=":1202349393_7_0" index="0" length="10.61" shape="368.29,398.00 371.21,397.77 373.46,398.54 375.02,400.32 375.92,403.11" speed="5.56"/>
   </edge>
   <edge function="internal" id=":1202349393_8">
      <lane allow="delivery bicycle pedestrian" id=":1202349393_8_0" index="0" length="4.82" shape="368.29,398.00 369.68,398.53 370.27,399.24 370.05,400.14 369.02,401.22" speed="5.56"/>
   </edge>
   <edge function="internal" id=":1202349399_0">
      <lane disallow="tram rail_urban rail rail_electric ship" id=":1202349399_0_0" index="0" length="0.10" shape="611.85,339.20 611.85,339.20" speed="4.17"/>
   </edge>
   <edge function="internal" id=":1202349416_0">
      <lane allow="delivery bicycle pedestrian" id=":1202349416_0_0" index="0" length="4.10" shape="387.02,439.75 386.70,438.43 386.20,437.53 385.51,437.05 384.64,436.98" speed="5.56"/>
   </edge>
   <edge function="internal" id=":1202349416_1">
      <lane allow="delivery bicycle pedestrian" id=":1202349416_1_0" index="0" length="8.92" shape="387.02,439.75 385.70,430.93" speed="5.56"/>
   </edge>
   <edge function="internal" id=":1202349416_2">
      <lane allow="delivery bicycle pedestrian" id=":1202349416_2_0" index="0" length="4.82" shape="387.02,439.75 387.65,438.41 388.41,437.88 389.29,438.16 390.28,439.27" speed="5.56"/>
   </edge>
   <edge function="internal" id=":1202349416_3">
      <lane allow="delivery bicycle pedestrian" id=":1202349416_3_0" index="0" length="9.30" shape="388.91,430.07 390.28,439.27" speed="5.56"/>
   </edge>
   <edge function="internal" id=":1202349416_4">
      <lane allow="delivery bicycle pedestrian" id=":1202349416_4_0" index="0" length="9.25" shape="388.91,430.07 388.99,432.80 388.30,434.87 386.85,436.26 384.64,436.98" speed="5.56"/>
   </edge>
   <edge function="internal" id=":1202349416_5">
      <lane allow="delivery bicycle pedestrian" id=":1202349416_5_0" index="0" length="4.85" shape="388.91,430.07 388.43,431.49 387.74,432.10 386.83,431.92 385.70,430.93" speed="5.56"/>
   </edge>
   <edge function="internal" id=":1202349416_6">
      <lane allow="delivery bicycle pedestrian" id=":1202349416_6_0" index="0" length="4.38" shape="383.20,433.85 384.44,433.51 385.26,432.91 385.68,432.05 385.70,430.93" speed="5.56"/>
   </edge>
   <edge function="internal" id=":1202349416_7">