<?xml version="1.0" encoding="utf-8"?><!-- generated on 10/11/17 17:56:22 by SUMO polyconvert Version 0.25.0
<?xml version="1.0" encoding="UTF-8"?>

<configuration xmlns:xsi="http://www.w3.org/2001/XMLSchema-instance" xsi:noNamespaceSchemaLocation="http://sumo.dlr.de/xsd/polyconvertConfiguration.xsd">

    <input>
        <net-file value="MS_Kinderh_urban_800.net.xml"/>
        <osm-files value="MS_Kinderh_urban_800.osm"/>
        <type-file value="osmPolyconvert.typ.xml"/>
    </input>

    <output>
        <output-file value="MS_Kinderh_urban_800.poly.xml"/>
    </output>

    <projection>
        <proj.utm value="true"/>
    </projection>

    <processing>
        <poi-layer-offset value="5"/>
    </processing>

</configuration>
-->
<additional>
   <location convBoundary="-10.05,-1.17,769.32,820.64" netOffset="-403276.61,-5760696.67" origBoundary="7.591202,51.988601,7.602399,51.995896" projParameter="+proj=utm +zone=32 +ellps=WGS84 +datum=WGS84 +units=m +no_defs"/>
   <poly color="194,194,130" fill="1" id="104371842" layer="-3.00" shape="480.43,34.22 453.46,42.24 450.82,43.07 431.18,53.40 413.82,15.77 604.67,31.76 521.44,34.24 480.43,34.22" type="landuse"/>
   <poly color="209,209,204" fill="0" id="106837094" layer="-3.00" shape="682.65,806.38 719.54,753.06 726.70,737.34 730.01,726.80 730.96,725.23 734.92,720.39 737.04,716.45 738.28,713.31 738.62,710.19 738.45,705.35 734.83,696.57" type="commercial"/>
   <poly color="140,196,107" fill="1" id="117396517" layer="-3.00" shape="380.79,709.88 374.30,675.04 308.49,714.27 300.42,739.89 290.40,773.13 279.06,810.46 334.47,812.45 340.04,792.17 334.50,766.82 347.91,754.58 343.27,722.33 380.79,709.88" type="forest"/>
   <poly color="207,245,201" fill="0" id="117396519" layer="-2.00" shape="749.89,278.80 746.97,281.74 746.76,291.98 740.93,291.75 736.77,295.60 729.67,295.53 719.57,260.77 710.35,260.63 710.98,228.20 719.24,228.31 719.48,226.04 723.47,224.62 725.85,223.24 727.81,221.31 730.77,217.87 732.36,212.17 732.69,205.64 732.65,188.02 731.64,182.34 732.00,179.87 733.24,178.20 734.69,177.29" type="tourism"/>
   <poly color="207,245,201" fill="1" id="117399329" layer="-2.00" shape="591.98,107.92 597.49,98.26 597.49,69.48 621.49,69.49 621.44,70.49 624.56,70.47 624.57,107.91 591.98,107.92" type="leisure"/>
   <poly color="194,194,130" fill="1" id="117477575" layer="-3.00" shape="397.95,804.14 422.43,801.02 666.41,794.47 672.71,785.81 683.79,768.84 678.79,763.33 652.13,758.21 611.99,750.38 553.07,738.50 489.54,726.35 486.51,689.40 491.36,675.86 490.51,654.56 487.95,646.93 484.08,643.40 484.22,608.51 397.76,660.73 374.30,675.04 390.28,762.26 396.23,794.76 397.95,804.14" type="landuse"/>
   <poly color="194,194,130" fill="1" id="121635651" layer="-3.00" shape="385.27,10.04 381.45,12.38 413.82,15.77 403.17,14.91 385.27,10.04" type="landuse"/>
   <poly color="red" fill="1" id="157734362" layer="-1.00" shape="604.46,706.11 599.19,701.94 599.42,701.51 605.63,693.74 610.92,697.92 604.46,706.11" type="building"/>
   <poly color="red" fill="1" id="157734368" layer="-1.00" shape="717.09,679.03 716.85,658.20 729.45,658.06 729.48,659.94 729.55,666.79 733.05,666.75 733.07,669.96 729.59,669.84 729.61,672.07 729.68,678.89 717.09,679.03" type="building"/>
   <poly color="red" fill="1" id="157734370" layer="-1.00" shape="738.94,659.80 738.70,639.11 751.33,638.97 751.37,641.40 751.44,647.83 754.78,647.80 754.82,651.43 751.49,651.46 751.50,652.70 751.57,659.67 742.98,659.78 738.94,659.80" type="building"/>
   <poly color="red" fill="0" id="159408128" layer="-1.00" shape="-7.43,326.87 -5.89,329.22 -6.36,331.13" type="building"/>
   <poly color="red" fill="1" id="159408139" layer="-1.00" shape="-4.28,351.87" type="building"/>
   <poly color="red" fill="1" id="159408144" layer="-1.00" shape="-4.86,407.59" type="building"/>
   <poly color="207,245,201" fill="0" id="166483397" layer="-2.00" shape="0.31,568.61 5.54,577.19 6.42,584.81" type="leisure"/>
   <poly color="207,245,201" fill="1" id="166756891" layer="-2.00" shape="109.44,741.19 137.80,719.34 143.36,719.39 141.81,748.69 109.34,751.31 109.44,741.19" type="leisure"/>
   <poly color="140,196,107" fill="1" id="168741951" layer="-3.00" shape="156.83,690.96 101.03,731.36 54.06,729.49 54.87,706.90 52.18,677.96 17.77,598.41 11.35,583.89 6.42,584.81 48.77,754.31 52.96,754.73 53.34,749.69 81.86,753.33 109.34,751.31 109.44,741.19 137.80,719.34 143.36,719.39 143.60,714.74 161.66,701.60 159.31,697.05 156.83,690.96" type="forest"/>
   <poly color="red" fill="1" id="172416447" layer="-1.00" shape="321.76,109.13 322.85,110.76 320.45,112.35 315.37,104.74 319.16,102.21 323.17,108.20 321.76,109.13" type="building"/>
   <poly color="184,184,179" fill="1" id="178653854" layer="-1.00" shape="533.65,492.25 553.40,493.59 554.18,542.52 543.58,542.91 539.50,534.66 543.24,532.92 543.30,525.91 538.09,525.91 537.77,516.47 535.74,516.60 534.04,504.76 533.65,492.25" type="parking"/>
   <poly color="red" fill="1" id="178653855" layer="-1.00" shape="547.69,490.12 547.44,493.07 545.61,492.92 543.51,492.75 543.75,489.82 535.35,489.12 537.43,464.19 538.16,464.24 538.57,459.31 539.87,459.42 540.98,446.13 561.66,447.84 560.08,466.82 558.07,466.66 556.05,490.83 547.69,490.12" type="building"/>
   <poly color="237,199,255" fill="1" id="178653855#1" layer="-1.00" shape="547.69,490.12 547.44,493.07 545.61,492.92 543.51,492.75 543.75,489.82 535.35,489.12 537.43,464.19 538.16,464.24 538.57,459.31 539.87,459.42 540.98,446.13 561.66,447.84 560.08,466.82 558.07,466.66 556.05,490.83 547.69,490.12" type="shop"/>
   <poly color="140,196,107" fill="1" id="198181120" layer="-4.00" shape="510.97,321.19 508.76,336.45 492.05,312.32 497.33,308.63 487.52,294.98 494.75,290.29 446.62,217.50 444.78,201.88 419.89,164.90 403.52,153.59 420.84,147.06 421.06,143.93 421.97,138.68 423.08,129.47 426.28,118.47 426.58,115.43 429.99,114.91 430.79,113.52 432.89,112.56 451.42,151.43 470.58,189.84 476.89,202.21 480.90,209.12 486.96,217.82 498.09,231.48 505.32,238.42 508.32,241.30 510.31,243.65 511.82,246.11 512.90,249.20 512.95,251.96 512.27,254.64 511.51,258.42 510.77,263.03 510.31,267.91 510.03,272.32 510.16,279.48 510.97,321.19" type="natural"/>
   <poly color="140,196,107" fill="1" id="198181121" layer="-4.00" shape="357.61,87.71 371.43,78.62 374.72,76.94 385.46,74.72 387.88,76.23 404.25,65.25 398.98,59.48 395.88,56.41 391.86,53.00 387.00,49.69 381.51,46.49 375.93,43.94 369.99,41.57 362.96,39.96 320.33,31.20 317.74,31.00 316.28,31.85 315.47,32.79 313.70,41.18 312.53,47.73 311.83,49.30 310.58,51.26 323.06,53.40 334.48,70.34 338.41,76.56 348.70,91.81 357.61,87.71" type="natural"/>
   <poly color="207,245,201" fill="1" id="198181123" layer="-2.00" shape="401.84,116.77 407.48,112.30 410.36,105.67 410.80,98.86 407.97,91.59 401.89,85.89 391.12,86.70 385.32,91.58 383.05,102.41 387.62,115.44 394.60,119.40 401.84,116.77" type="leisure"/>
   <poly color="140,196,107" fill="1" id="198181126" layer="-3.00" shape="439.32,93.66 440.49,95.06 442.73,96.16 445.48,96.40 447.46,95.68 473.75,80.48 453.46,42.24 450.82,43.07 431.18,53.40 413.82,15.77 403.17,14.91 428.00,71.76 439.32,93.66" type="forest"/>
   <poly color="140,196,107" fill="1" id="198181130" layer="-3.00" shape="449.15,112.44 448.59,109.77 448.99,106.78 451.45,104.72 477.76,89.49 493.81,128.18 523.74,128.38 523.90,171.40 567.71,196.34 558.61,200.23 548.51,205.47 541.84,210.36 534.41,217.68 531.44,219.84 527.52,220.58 524.75,220.21 522.43,218.62 521.11,220.30 513.60,215.05 502.59,204.33 492.67,192.20 488.14,185.68 482.19,176.34 449.15,112.44" type="forest"/>
   <poly color="red" fill="1" id="198357048" layer="-1.00" shape="10.35,397.39 7.97,393.78 7.36,394.18 4.75,390.21 5.37,389.80 3.22,386.54 12.59,380.36 19.73,391.20 10.35,397.39" type="building"/>
   <poly color="red" fill="1" id="198357050" layer="-1.00" shape="17.22,277.49 18.88,276.40 19.21,275.00 21.01,273.83 22.38,274.12 25.13,278.31 25.58,279.02 28.41,283.33 28.67,283.74 23.52,287.11 17.22,277.49" type="building"/>
   <poly color="red" fill="1" id="198357051" layer="-1.00" shape="67.39,350.29 63.44,344.25 63.27,343.99 68.08,340.83 74.69,336.54 78.80,342.84 67.39,350.29" type="building"/>
   <poly color="red" fill="1" id="198357057" layer="-1.00" shape="-6.00,373.72 -3.30,358.45 0.18,363.78 0.81,363.36 1.23,363.99 -0.65,365.22 1.59,368.66 5.75,365.94 5.84,366.08 6.61,367.27 10.63,373.41 7.68,375.34 8.00,375.84 6.12,377.09 -0.87,381.65 -4.28,376.44 -3.93,374.93 -2.20,373.80 -3.34,372.00 -6.00,373.72" type="building"/>
   <poly color="red" fill="1" id="198357059" layer="-1.00" shape="18.30,324.46 13.68,317.41 17.38,314.98 16.52,313.68 22.84,309.56 28.31,317.92 18.30,324.46" type="building"/>
   <poly color="red" fill="1" id="198357060" layer="-1.00" shape="34.44,281.46 31.54,277.07 30.10,274.84 28.20,271.97 26.89,269.96 32.58,266.22 32.77,266.11 38.48,262.36 46.03,273.85 34.44,281.46" type="building"/>
   <poly color="red" fill="1" id="198357064" layer="-1.00" shape="48.97,368.62 44.68,371.42 41.31,366.26 44.14,364.42 42.36,361.68 46.58,358.92 48.36,361.64 52.67,358.83 56.03,364.00 53.19,365.85 54.96,368.58 50.75,371.33 48.97,368.62" type="building"/>
   <poly color="red" fill="1" id="198357065" layer="-1.00" shape="40.15,354.85 39.96,354.58 34.66,346.44 43.22,340.85 48.71,349.24 41.91,353.71 40.15,354.85" type="building"/>
   <poly color="red" fill="1" id="198357074" layer="-1.00" shape="23.33,337.01 23.24,336.86 23.55,336.66 21.91,334.14 22.22,332.53 20.98,330.64 20.00,331.28 19.64,330.76 24.90,327.31 29.71,324.17 29.84,324.34 31.31,326.62 31.51,326.49 31.77,326.90 31.58,327.03 32.54,328.49 32.75,328.36 33.02,328.77 32.81,328.91 33.68,330.24 23.33,337.01" type="building"/>
   <poly color="red" fill="1" id="198357079" layer="-1.00" shape="7.24,312.60 5.54,312.24 4.54,310.71 4.82,309.34 3.44,307.23 2.62,307.77 2.36,307.37 13.63,299.98 17.49,305.87 13.12,308.76 8.12,312.05 7.24,312.60" type="building"/>
   <poly color="red" fill="1" id="198357081" layer="-1.00" shape="1.64,277.39 4.29,275.66 7.54,280.64 4.89,282.37 1.64,277.39" type="building"/>
   <poly color="red" fill="1" id="198357083" layer="-1.00" shape="31.69,381.33 26.77,373.81 32.18,370.28 32.75,371.11 37.10,377.80 31.69,381.33" type="building"/>
   <poly color="140,196,107" fill="0" id="198357084" layer="-4.00" shape="61.63,224.61 67.44,220.09 67.96,218.42 65.20,218.47" type="natural"/>
   <poly color="red" fill="1" id="198357087" layer="-1.00" shape="46.81,296.28 45.13,293.72 44.08,294.40 42.24,291.61 52.45,284.91 55.82,290.03 55.97,290.26 51.21,293.40 46.81,296.28" type="building"/>
   <poly color="red" fill="1" id="198357088" layer="-1.00" shape="60.04,339.00 59.83,338.70 55.93,332.70 67.35,325.25 71.45,331.53 64.83,335.87 60.04,339.00" type="building"/>
   <poly color="red" fill="1" id="198357092" layer="-1.00" shape="48.56,321.39 48.36,321.10 44.45,315.09 55.84,307.64 59.96,313.93 53.35,318.27 48.56,321.39" type="building"/>
   <poly color="red" fill="1" id="198357093" layer="-1.00" shape="-0.94,302.36 -4.37,297.13 6.09,290.28 6.17,290.41 5.75,290.69 9.09,295.79 4.08,299.08 -0.94,302.36" type="building"/>
   <poly color="red" fill="1" id="198357095" layer="-1.00" shape="-4.37,297.13 -4.59,296.77 -3.75,296.23 -5.76,293.17 -6.59,293.72 -8.00,293.39 1.56,283.38 3.24,285.94 3.45,285.81 4.64,286.06 5.67,287.62 5.42,288.81 5.22,288.96 6.09,290.28 -4.37,297.13" type="building"/>
   <poly color="red" fill="1" id="198357399" layer="-1.00" shape="97.76,308.95 97.45,308.59 95.41,305.43 95.03,304.77 100.60,301.12 108.11,296.22 110.83,300.40 97.76,308.95" type="building"/>
   <poly color="red" fill="1" id="198357400" layer="-1.00" shape="93.91,298.33 90.64,293.34 93.57,291.42 91.38,288.07 99.02,283.07 101.29,286.53 101.60,286.34 104.79,291.23 101.76,293.23 95.92,297.05 93.91,298.33" type="building"/>
   <poly color="red" fill="1" id="198357401" layer="-1.00" shape="110.47,322.74 106.78,317.10 106.65,316.90 111.64,313.62 117.12,310.07 120.93,315.90 110.47,322.74" type="building"/>
   <poly color="red" fill="1" id="198363131" layer="-1.00" shape="79.47,285.72 78.43,285.49 75.09,280.40 79.09,277.78 79.71,275.07 81.28,274.07 81.05,273.70 83.77,271.94 88.64,272.97 90.45,275.74 87.88,277.40 87.59,277.35 87.19,279.32 88.02,279.49 87.26,283.21 84.28,282.60 79.47,285.72" type="building"/>
   <poly color="red" fill="1" id="198363132" layer="-1.00" shape="107.91,245.97 108.06,246.19 107.03,246.77 105.63,244.47 105.53,244.29 109.55,241.66 109.44,241.46 110.33,240.98 111.85,243.18 111.99,243.36 107.91,245.97" type="building"/>
   <poly color="red" fill="1" id="198363133" layer="-1.00" shape="68.95,270.67 66.43,266.81 67.05,263.88 70.94,261.34 71.10,261.65 73.33,260.23 75.00,260.62 78.91,258.06 81.45,261.94 80.86,264.88 77.00,267.37 76.51,269.46 72.20,268.54 68.95,270.67" type="building"/>
   <poly color="red" fill="1" id="198363134" layer="-1.00" shape="81.95,247.12 80.86,245.45 79.18,246.55 76.58,242.57 80.26,240.18 76.86,234.95 79.54,233.21 84.40,234.21 86.87,237.96 88.78,240.89 88.65,240.99 86.80,242.19 87.60,243.43 81.95,247.12" type="building"/>
   <poly color="red" fill="1" id="198363135" layer="-1.00" shape="70.44,252.87 67.03,247.63 65.66,248.52 65.33,248.00 61.97,250.19 58.70,245.16 62.05,242.98 61.98,242.84 67.61,239.18 71.03,244.43 72.40,243.53 73.96,245.93 73.12,246.48 73.88,247.66 74.73,247.11 76.09,249.19 70.44,252.87" type="building"/>
   <poly color="red" fill="1" id="198375199" layer="-1.00" shape="120.64,287.15 118.72,284.20 119.36,283.78 117.72,281.29 127.13,275.15 128.74,277.67 129.20,277.37 131.11,280.31 120.64,287.15" type="building"/>
   <poly color="red" fill="1" id="198375200" layer="-1.00" shape="138.00,300.02 140.95,298.09 141.36,298.74 143.86,297.11 147.42,302.54 150.00,306.53 147.51,308.14 147.79,308.58 144.85,310.49 138.00,300.02" type="building"/>
   <poly color="red" fill="1" id="198375201" layer="-1.00" shape="110.66,268.76 109.43,269.57 107.16,266.08 107.90,262.72 109.32,263.04 109.80,260.91 112.33,259.24 112.47,259.14 113.89,261.34 116.35,259.74 114.08,261.31 117.81,267.28 116.86,271.66 116.83,271.78 113.87,273.69 110.66,268.76" type="building"/>
   <poly color="red" fill="1" id="198375202" layer="-1.00" shape="154.35,290.28 156.84,288.65 156.42,288.00 159.36,286.09 166.22,296.57 163.26,298.51 162.97,298.04 160.48,299.68 154.35,290.28" type="building"/>
   <poly color="red" fill="1" id="198375203" layer="-1.00" shape="138.61,277.39 139.01,276.72 136.46,275.19 142.22,265.54 144.78,267.07 145.05,266.60 148.06,268.40 141.64,279.19 138.61,277.39" type="building"/>
   <poly color="red" fill="1" id="198375204" layer="-1.00" shape="108.42,253.42 109.45,248.47 114.69,245.32 116.59,248.23 114.30,249.73 117.54,254.72 116.51,259.70 116.38,259.78 113.89,261.34 112.47,259.14 112.33,259.24 108.42,253.42" type="building"/>
   <poly color="140,196,107" fill="1" id="198462963" layer="-4.00" shape="422.16,109.99 413.24,105.75 412.73,98.78 403.20,85.19 392.50,85.28 383.52,91.22 381.38,108.76 359.42,99.83 404.85,70.95 409.72,75.63 418.84,89.79 427.17,105.46 422.16,109.99" type="natural"/>
   <poly color="red" fill="1" id="198462973" layer="-1.00" shape="356.45,275.91 355.08,273.91 351.63,268.89 349.37,265.60 354.54,262.06 361.61,272.39 356.45,275.91" type="building"/>
   <poly color="red" fill="1" id="198462974" layer="-1.00" shape="331.03,273.01 324.38,263.37 329.70,259.69 336.36,269.35 331.03,273.01" type="building"/>
   <poly color="194,194,130" fill="1" id="198462975" layer="-3.00" shape="402.66,151.95 400.76,149.45 398.97,140.32 378.77,111.14 383.05,102.41 387.62,115.44 394.60,119.40 401.84,116.77 407.48,112.30 410.36,105.67 410.80,98.86 407.97,91.59 412.73,98.78 413.24,105.75 422.16,109.99 426.58,115.43 426.28,118.47 423.08,129.47 421.97,138.68 421.06,143.93 420.84,147.06 403.52,153.59 402.66,151.95" type="landuse"/>
   <poly color="red" fill="1" id="198462983" layer="-1.00" shape="334.37,244.32 341.52,239.42 348.62,249.73 341.44,254.65 334.37,244.32" type="building"/>
   <poly color="red" fill="1" id="198462985" layer="-1.00" shape="375.58,260.33 371.32,254.11 369.15,250.94 374.32,247.39 380.76,256.77 375.58,260.33" type="building"/>
   <poly color="red" fill="1" id="198464261" layer="-1.00" shape="295.64,245.00 301.21,241.16 300.70,240.43 300.85,240.32 307.95,250.49 302.18,254.47 302.02,254.24 298.57,249.25 295.64,245.00" type="building"/>
   <poly color="red" fill="1" id="198464262" layer="-1.00" shape="348.87,214.15 341.79,203.85 347.75,199.76 354.01,208.80 353.01,209.48 353.86,210.71 348.87,214.15" type="building"/>
   <poly color="red" fill="1" id="198464263" layer="-1.00" shape="300.85,240.32 306.19,236.64 309.59,241.58 312.98,246.49 310.03,248.54 309.45,247.61 307.24,249.12 308.06,250.40 307.95,250.49 300.85,240.32" type="building"/>
   <poly color="red" fill="1" id="198464264" layer="-1.00" shape="326.07,217.07 332.03,212.96 338.26,222.07 337.30,222.74 338.14,223.97 334.46,226.49 333.19,227.39 326.07,217.07" type="building"/>
   <poly color="red" fill="1" id="198464265" layer="-1.00" shape="401.80,244.92 395.13,235.21 400.15,231.76 406.82,241.47 406.00,242.04 406.28,242.44 404.46,243.70 404.17,243.30 401.80,244.92" type="building"/>
   <poly color="red" fill="1" id="198464267" layer="-1.00" shape="313.07,234.36 314.21,233.56 312.23,230.70 316.83,227.52 323.40,237.07 320.08,239.36 319.22,239.23 317.32,240.53 313.07,234.36" type="building"/>
   <poly color="red" fill="1" id="198464268" layer="-1.00" shape="360.92,238.82 353.85,228.50 361.00,223.60 368.08,233.91 360.92,238.82" type="building"/>
   <poly color="red" fill="1" id="198464269" layer="-1.00" shape="424.14,230.76 422.17,227.90 418.07,221.93 417.47,221.08 422.52,217.62 429.16,227.29 428.38,227.84 428.66,228.25 426.79,229.54 426.51,229.14 424.14,230.76" type="building"/>
   <poly color="red" fill="1" id="198464271" layer="-1.00" shape="384.32,176.46 390.37,172.29 396.60,181.35 395.64,182.01 396.50,183.26 391.40,186.76 384.32,176.46" type="building"/>
   <poly color="red" fill="1" id="198464273" layer="-1.00" shape="420.03,184.50 426.27,179.94 433.34,190.22 426.98,194.61 420.03,184.50" type="building"/>
   <poly color="red" fill="1" id="198464274" layer="-1.00" shape="371.58,199.63 364.51,189.36 371.72,184.40 378.09,193.68 377.09,194.35 377.79,195.36 371.58,199.63" type="building"/>
   <poly color="140,196,107" fill="1" id="198464722" layer="-4.00" shape="237.64,144.91 335.68,78.85 338.41,76.56 334.48,70.34 208.58,153.81 213.48,160.87 237.64,144.91" type="natural"/>
   <poly color="140,196,107" fill="1" id="198464723" layer="-4.00" shape="109.45,226.35 113.49,228.59 209.59,163.28 204.73,156.43 114.59,218.17 109.45,226.35" type="natural"/>
   <poly color="140,196,107" fill="1" id="198464911" layer="-4.00" shape="87.11,209.93 153.33,127.59 160.12,118.38 178.39,92.12 222.52,24.66 237.10,14.71 222.33,11.74 215.59,19.61 139.27,126.47 88.37,196.75 88.10,196.86 86.47,200.19 85.87,203.66 85.92,206.69 87.11,209.93" type="natural"/>
   <poly color="red" fill="1" id="198465842" layer="-1.00" shape="306.09,159.97 302.60,154.90 307.33,151.62 307.26,151.52 311.78,148.53 315.29,153.62 306.09,159.97" type="building"/>
   <poly color="red" fill="1" id="198465844" layer="-1.00" shape="263.59,194.79 269.83,190.50 276.05,199.54 273.79,201.10 272.35,202.10 273.73,204.09 271.20,205.85 264.40,195.95 263.59,194.79" type="building"/>
   <poly color="red" fill="1" id="198465845" layer="-1.00" shape="298.06,154.04 296.30,153.72 294.08,150.51 298.46,147.48 302.53,144.69 307.26,151.52 307.33,151.62 302.60,154.90 299.92,156.75 298.06,154.04" type="building"/>
   <poly color="red" fill="1" id="198465849" layer="-1.00" shape="324.54,180.48 320.95,175.28 322.10,174.49 328.18,170.29 330.14,168.94 333.73,174.14 324.54,180.48" type="building"/>
   <poly color="red" fill="1" id="198465851" layer="-1.00" shape="286.64,209.15 284.95,206.70 289.88,203.29 291.59,205.79 286.64,209.15" type="building"/>
   <poly color="red" fill="1" id="198465855" layer="-1.00" shape="304.12,122.29 309.32,118.70 311.41,121.73 315.39,127.47 315.70,127.91 313.21,129.62 311.33,130.94 310.50,131.51 304.12,122.29" type="building"/>
   <poly color="red" fill="1" id="198465857" layer="-1.00" shape="290.11,145.97 289.39,146.46 281.80,135.50 281.87,135.59 292.35,128.35 293.33,129.76 297.04,135.10 297.73,136.11 294.90,138.07 294.22,138.54 295.52,140.40 296.36,141.62 295.05,142.54 290.11,145.97" type="building"/>
   <poly color="red" fill="1" id="198465860" layer="-1.00" shape="276.75,215.87 275.05,213.48 279.97,210.08 281.67,212.53 276.75,215.87" type="building"/>
   <poly color="red" fill="1" id="238777287" layer="-1.00" shape="95.85,207.13 101.72,203.13 108.04,212.38 107.00,213.09 107.70,214.12 107.01,214.61 106.88,214.69 106.74,214.49 102.74,217.21 95.85,207.13" type="building"/>
   <poly color="red" fill="1" id="238777291" layer="-1.00" shape="8.59,194.42 8.75,194.30 8.82,194.39 12.23,192.03 14.21,194.94 14.85,194.52 15.28,195.15 14.64,195.58 15.75,197.23 19.82,194.41 21.51,196.84 16.92,200.03 17.13,200.34 14.28,202.32 14.32,202.42 14.16,202.52 8.59,194.42" type="building"/>
   <poly color="red" fill="1" id="238777293" layer="-1.00" shape="16.92,200.03 21.51,196.84 26.64,193.29 26.90,193.55 25.84,194.28 30.09,200.30 31.09,199.59 33.81,203.50 32.81,204.18 36.97,210.27 37.97,209.58 39.57,211.85 41.70,214.92 36.66,218.40 38.11,220.50 34.57,222.94 33.13,220.84 28.46,214.19 27.31,214.98 17.13,200.34 16.92,200.03" type="building"/>
   <poly color="red" fill="1" id="238777296" layer="-1.00" shape="152.06,153.58 147.64,146.97 156.49,141.05 158.38,143.87 159.30,145.25 160.71,144.32 162.32,146.73 152.06,153.58" type="building"/>
   <poly color="red" fill="1" id="238777298" layer="-1.00" shape="143.38,89.65 139.93,87.03 139.31,87.82 136.17,85.44 136.79,84.63 133.35,82.00 139.27,74.27 149.28,81.90 143.38,89.65" type="building"/>
   <poly color="red" fill="1" id="238777300" layer="-1.00" shape="107.46,199.19 108.97,198.16 108.75,197.83 111.20,196.17 111.42,196.49 113.20,195.26 119.53,204.53 118.48,205.23 119.18,206.26 118.35,206.82 118.22,206.63 114.35,209.28 107.46,199.19" type="building"/>
   <poly color="red" fill="1" id="238777301" layer="-1.00" shape="118.93,191.32 118.04,190.03 124.43,185.64 131.13,195.45 128.72,197.10 128.04,196.11 126.76,196.97 124.05,198.82 118.93,191.32" type="building"/>
   <poly color="red" fill="1" id="238777302" layer="-1.00" shape="20.14,224.32 22.98,222.35 26.65,227.67 23.87,229.64 20.14,224.32" type="building"/>
   <poly color="red" fill="1" id="238777303" layer="-1.00" shape="163.77,173.90 159.37,167.33 169.27,160.72 170.89,163.15 169.86,163.85 170.72,165.13 172.63,167.99 163.77,173.90" type="building"/>
   <poly color="red" fill="1" id="238777306" layer="-1.00" shape="6.16,238.18 6.96,239.34 4.39,241.11 0.53,235.50 4.89,232.50 4.08,231.33 5.17,230.57 1.91,225.83 8.01,221.63 9.97,224.49 15.71,220.55 18.90,225.18 20.14,224.32 23.87,229.64 22.18,230.81 21.71,230.13 20.06,231.28 19.62,230.63 15.65,233.35 14.36,231.46 12.31,232.88 12.76,233.63 6.16,238.18" type="building"/>
   <poly color="red" fill="1" id="238777308" layer="-1.00" shape="167.43,29.15 164.06,21.87 165.08,21.40 171.53,18.39 173.62,22.87 176.55,21.50 177.86,24.29 167.43,29.15" type="building"/>
   <poly color="red" fill="1" id="238777310" layer="-1.00" shape="113.20,195.26 113.49,195.07 114.97,194.06 114.75,193.73 117.20,192.06 117.41,192.36 118.93,191.32 124.05,198.82 125.83,201.41 121.95,204.07 122.09,204.27 121.26,204.84 120.56,203.82 119.53,204.53 113.20,195.26" type="building"/>
   <poly color="red" fill="1" id="238777312" layer="-1.00" shape="137.23,176.91 143.80,172.42 149.80,181.20 147.07,183.08 145.64,184.05 146.31,185.05 143.91,186.68 137.23,176.91" type="building"/>
   <poly color="red" fill="1" id="238777315" layer="-1.00" shape="156.37,160.02 152.06,153.58 162.32,146.73 163.94,149.15 162.54,150.09 163.39,151.38 165.22,154.11 163.93,154.97 156.37,160.02" type="building"/>
   <poly color="red" fill="1" id="238777318" layer="-1.00" shape="41.70,214.92 39.57,211.85 47.15,205.76 55.70,198.89 59.87,204.00 51.73,210.59 50.04,208.51 41.70,214.92" type="building"/>
   <poly color="red" fill="1" id="238777321" layer="-1.00" shape="109.90,71.52 101.16,64.80 107.14,56.98 107.84,57.52 110.57,53.93 109.87,53.40 115.85,45.58 118.27,47.44 124.59,52.25 121.79,55.93 118.21,56.44 118.68,59.84 118.78,59.90 118.54,60.18 118.02,60.24 117.82,61.13 117.34,61.96 116.66,62.62 115.85,63.04 115.92,63.61 114.57,65.39 110.90,70.20 109.90,71.52" type="building"/>
   <poly color="red" fill="1" id="238777322" layer="-1.00" shape="-0.64,244.57 -4.55,238.99 0.53,235.50 4.39,241.11 -0.64,244.57" type="building"/>
   <poly color="red" fill="1" id="238777323" layer="-1.00" shape="143.38,66.10 143.86,65.45 141.34,63.52 140.86,64.17 136.77,61.04 141.87,54.38 151.49,61.75 149.92,63.81 146.42,68.41 143.38,66.10" type="building"/>
   <poly color="red" fill="1" id="238777324" layer="-1.00" shape="171.37,36.17 170.79,36.52 170.50,35.90 167.43,29.15 177.86,24.29 184.88,21.00 185.85,22.94 184.21,23.71 185.65,26.72 181.58,28.67 180.21,29.27 179.17,27.07 176.00,28.54 177.83,32.48 178.18,33.05 177.57,33.35 171.37,36.17" type="building"/>
   <poly color="red" fill="1" id="238777325" layer="-1.00" shape="180.21,29.27 181.58,28.67 182.75,30.95 186.87,34.79 183.56,36.39 180.21,29.27" type="building"/>
   <poly color="red" fill="1" id="238777326" layer="-1.00" shape="159.37,167.33 155.08,160.90 156.37,160.02 163.93,154.97 165.68,157.58 166.62,158.99 167.66,158.30 169.27,160.72 159.37,167.33" type="building"/>
   <poly color="red" fill="1" id="238777327" layer="-1.00" shape="151.24,19.47 148.73,14.05 151.14,12.92 162.32,15.99 157.80,18.09 157.16,16.72 151.24,19.47" type="building"/>
   <poly color="red" fill="1" id="239490810" layer="-1.00" shape="233.88,42.36 239.03,38.93 239.22,38.80 241.44,42.12 245.08,47.57 239.74,51.14 233.88,42.36" type="building"/>
   <poly color="red" fill="1" id="239490811" layer="-1.00" shape="274.78,52.12 273.88,51.90 274.03,50.99 272.91,49.31 273.03,48.81 270.69,45.31 274.15,42.99 274.23,42.47 276.23,41.13 275.81,40.51 279.62,37.98 285.05,46.11 282.27,47.97 285.04,52.12 277.95,56.87 275.58,53.32 274.78,52.12" type="building"/>
   <poly color="red" fill="1" id="239490812" layer="-1.00" shape="174.43,116.32 183.58,110.19 189.72,119.34 180.56,125.47 174.43,116.32" type="building"/>
   <poly color="red" fill="1" id="239490813" layer="-1.00" shape="238.81,126.89 232.10,116.84 234.65,115.14 234.92,113.79 239.92,110.45 244.57,117.39 246.57,120.39 244.11,122.04 243.81,123.56 238.81,126.89" type="building"/>
   <poly color="red" fill="1" id="239490814" layer="-1.00" shape="59.74,118.96 64.48,112.75 78.17,123.22 76.88,124.90 76.43,125.49 73.42,129.41 65.79,123.58 59.74,118.96" type="building"/>
   <poly color="red" fill="1" id="239490815" layer="-1.00" shape="47.76,152.83 40.02,146.93 42.05,144.28 41.03,143.49 43.96,139.67 44.17,139.41 48.68,142.85 52.92,146.07 47.76,152.83" type="building"/>
   <poly color="red" fill="1" id="239490816" layer="-1.00" shape="198.45,97.64 202.05,95.22 203.34,95.50 204.53,94.75 203.99,93.94 204.27,93.75 207.26,98.08 210.60,103.08 210.89,103.52 205.04,107.42 204.78,107.05 198.45,97.64" type="building"/>
   <poly color="red" fill="1" id="239490817" layer="-1.00" shape="110.17,132.57 101.21,125.70 104.12,121.88 107.07,118.00 110.60,120.70 112.09,121.83 116.06,124.87 115.96,125.00 110.17,132.57" type="building"/>
   <poly color="red" fill="1" id="239490818" layer="-1.00" shape="216.27,133.27 212.76,128.02 214.41,126.92 214.51,126.37 218.95,123.39 219.50,123.50 221.15,122.40 224.65,127.64 216.27,133.27" type="building"/>
   <poly color="red" fill="1" id="239490819" layer="-1.00" shape="201.60,149.95 198.70,145.57 201.62,143.64 200.48,141.93 197.95,138.16 197.83,138.00 205.32,132.98 210.02,140.01 212.17,143.53 204.83,148.44 204.54,148.01 201.60,149.95" type="building"/>
   <poly color="red" fill="1" id="239490820" layer="-1.00" shape="57.57,151.52 57.15,152.07 56.69,151.71 62.56,144.02 69.42,149.25 69.21,149.53 71.74,151.47 71.97,151.19 72.50,151.60 68.25,157.16 66.61,159.30 66.12,158.92 66.53,158.39 57.57,151.52" type="building"/>
   <poly color="184,184,179" fill="1" id="239490821" layer="-1.00" shape="177.18,149.98 180.49,154.64 189.89,148.02 186.59,143.35 177.18,149.98" type="parking"/>
   <poly color="194,194,130" fill="1" id="239490822" layer="-3.00" shape="162.12,141.30 179.88,129.51 172.29,118.25 165.92,122.35 160.12,118.38 153.33,127.59 162.12,141.30" type="landuse"/>
   <poly color="red" fill="1" id="239490823" layer="-1.00" shape="84.85,112.59 84.59,112.39 78.40,107.67 76.90,109.62 71.80,105.76 75.25,101.23 74.06,100.32 77.06,96.39 80.02,98.64 81.10,97.24 84.42,99.78 82.49,102.29 88.71,107.02 88.95,107.21 84.85,112.59" type="building"/>
   <poly color="red" fill="1" id="239490826" layer="-1.00" shape="249.36,112.59 249.68,112.37 247.46,109.07 247.14,109.28 245.20,106.37 252.34,101.60 258.74,111.17 251.76,115.85 251.61,115.95 249.62,112.97 249.36,112.59" type="building"/>
   <poly color="red" fill="1" id="239490827" layer="-1.00" shape="222.10,94.13 221.97,93.93 217.39,87.06 227.38,80.39 229.04,79.28 230.58,81.59 230.27,82.98 232.70,86.60 233.53,86.05 233.74,86.36 225.07,92.14 222.10,94.13" type="building"/>
   <poly color="red" fill="1" id="239490829" layer="-1.00" shape="203.74,68.28 204.08,66.56 207.38,64.36 206.15,62.54 209.61,57.44 212.99,62.52 212.90,63.06 217.33,69.70 211.09,73.87 208.59,75.54 208.43,75.31 203.74,68.28" type="building"/>
   <poly color="red" fill="1" id="239490831" layer="-1.00" shape="262.87,70.04 259.84,65.47 258.71,63.79 258.92,63.65 257.55,61.59 259.17,60.50 259.79,57.93 262.36,58.43 262.40,58.33 265.10,56.52 268.51,61.67 270.12,61.98 269.79,63.59 270.64,64.86 267.88,66.69 268.08,66.98 265.86,68.47 265.66,68.18 262.87,70.04" type="building"/>
   <poly color="red" fill="1" id="239490832" layer="-1.00" shape="166.29,122.47 171.28,119.13 177.97,129.09 173.00,132.45 166.29,122.47" type="building"/>