<?xml version="1.0" encoding="utf-8"?><!-- generated on 10/11/17 17:56:16 by SUMO netconvert Version 0.25.0
<?xml version="1.0" encoding="UTF-8"?>

<configuration xmlns:xsi="http://www.w3.org/2001/XMLSchema-instance" xsi:noNamespaceSchemaLocation="http://sumo.dlr.de/xsd/netconvertConfiguration.xsd">

    <input>
        <type-files value="osmNetconvert.typ.xml"/>
        <osm-files value="MS_Kinderh_urban_800.osm"/>
    </input>

    <output>
        <output-file value="MS_Kinderh_urban_800.net.xml"/>
    </output>

    <projection>
        <proj.utm value="true"/>
    </projection>

    <edge_removal>
        <remove-edges.by-type value="highway.track,highway.unsurfaced,highway.raceway,highway.bridleway,highway.path,highway.footway,highway.pedestrian,highway.cycleway,highway.step,highway.steps,highway.stairs,highway.bus_guideway,highway.ford,railway.rail,railway.tram,railway.light_rail,railway.subway,railway.preserved,railway.narrow_gauge,railway.monorail,railway.funicular"/>
    </edge_removal>

</configuration>
-->
<net version="0.25">
   <location convBoundary="0.00,0.00,763.50,817.72" netOffset="-403276.61,-5760696.67" origBoundary="7.591286,51.988601,7.602387,51.995884" projParameter="+proj=utm +zone=32 +ellps=WGS84 +datum=WGS84 +units=m +no_defs"/>
   <type allow="pedestrian" id="highway.bridleway" numLanes="1" oneway="1" priority="1" speed="2.78" width="2.00"/>
   <type allow="bus" id="highway.bus_guideway" numLanes="1" oneway="1" priority="1" speed="8.33"/>
   <type allow="bicycle" id="highway.cycleway" numLanes="1" oneway="0" priority="1" speed="5.56" width="1.00"/>
   <type allow="pedestrian" id="highway.footway" numLanes="1" oneway="1" priority="1" speed="8.33" width="2.00"/>
   <type allow="army" id="highway.ford" numLanes="1" oneway="0" priority="1" speed="2.78"/>
   <type disallow="tram rail_urban rail rail_electric ship" id="highway.living_street" numLanes="1" oneway="0" priority="3" speed="2.78"/>
   <type allow="private emergency authority army vip passenger hov taxi bus coach delivery truck trailer motorcycle evehicle custom1 custom2" id="highway.motorway" numLanes="2" oneway="1" priority="13" speed="44.44"/>
   <type allow="private emergency authority army vip passenger hov taxi bus coach delivery truck trailer motorcycle evehicle custom1 custom2" id="highway.motorway_link" numLanes="1" oneway="1" priority="12" speed="22.22"/>
   <type allow="bicycle pedestrian" id="highway.path" numLanes="1" oneway="1" priority="1" speed="2.78" width="2.00"/>
   <type allow="pedestrian" id="highway.pedestrian" numLanes="1" oneway="1" priority="1" speed="8.33" width="2.00"/>
   <type disallow="tram rail_urban rail rail_electric ship" id="highway.primary" numLanes="2" oneway="0" priority="9" speed="27.78"/>
   <type disallow="tram rail_urban rail rail_electric ship" id="highway.primary_link" numLanes="1" oneway="0" priority="8" speed="22.22"/>
   <type allow="vip" id="highway.raceway" numLanes="2" oneway="0" priority="14" speed="83.33"/>
   <type disallow="tram rail_urban rail rail_electric ship" id="highway.residential" numLanes="1" oneway="0" priority="4" speed="13.89"/>
   <type disallow="tram rail_urban rail rail_electric ship" id="highway.secondary" numLanes="2" oneway="0" priority="7" speed="27.78"/>
   <type disallow="tram rail_urban rail rail_electric ship" id="highway.secondary_link" numLanes="1" oneway="0" priority="6" speed="22.22"/>
   <type allow="delivery bicycle pedestrian" id="highway.service" numLanes="1" oneway="0" priority="2" speed="5.56"/>
   <type disallow="tram rail_urban rail rail_electric ship" id="highway.services" numLanes="1" oneway="0" priority="1" speed="8.33"/>
   <type allow="pedestrian" id="highway.stairs" numLanes="1" oneway="1" priority="1" speed="1.39" width="2.00"/>
   <type allow="pedestrian" id="highway.step" numLanes="1" oneway="1" priority="1" speed="1.39" width="2.00"/>
   <type allow="pedestrian" id="highway.steps" numLanes="1" oneway="1" priority="1" speed="1.39" width="2.00"/>
   <type disallow="tram rail_urban rail rail_electric ship" id="highway.tertiary" numLanes="1" oneway="0" priority="6" speed="22.22"/>
   <type disallow="tram rail_urban rail rail_electric ship" id="highway.tertiary_link" numLanes="1" oneway="0" priority="5" speed="22.22"/>
   <type disallow="tram rail_urban rail rail_electric ship" id="highway.track" numLanes="1" oneway="0" priority="1" speed="5.56"/>
   <type disallow="tram rail_urban rail rail_electric bicycle pedestrian ship" id="highway.trunk" numLanes="2" oneway="0" priority="11" speed="27.78"/>
   <type disallow="tram rail_urban rail rail_electric bicycle pedestrian ship" id="highway.trunk_link" numLanes="1" oneway="0" priority="10" speed="22.22"/>
   <type disallow="tram rail_urban rail rail_electric ship" id="highway.unclassified" numLanes="1" oneway="0" priority="5" speed="13.89"/>
   <type disallow="tram rail_urban rail rail_electric ship" id="highway.unsurfaced" numLanes="1" oneway="0" priority="1" speed="8.33"/>
   <type allow="rail_urban" id="railway.light_rail" numLanes="1" oneway="1" priority="15" speed="27.78"/>
   <type allow="rail" id="railway.preserved" numLanes="1" oneway="1" priority="15" speed="27.78"/>
   <type allow="rail rail_electric" id="railway.rail" numLanes="1" oneway="1" priority="15" speed="83.33"/>
   <type allow="rail_urban" id="railway.subway" numLanes="1" oneway="1" priority="15" speed="27.78"/>
   <type allow="tram" id="railway.tram" numLanes="1" oneway="1" priority="15" speed="13.89"/>
   <edge function="internal" id=":1118429928_0">
      <lane allow="delivery bicycle pedestrian" id=":1118429928_0_0" index="0" length="4.82" shape="153.36,229.83 154.84,229.81 155.65,230.27 155.77,231.18 155.21,232.56" speed="5.56"/>
   </edge>
   <edge function="internal" id=":1118429940_0">
      <lane allow="delivery bicycle pedestrian" id=":1118429940_0_0" index="0" length="4.82" shape="409.71,176.95 411.19,176.95 412.00,177.40 412.11,178.32 411.55,179.69" speed="8.33"/>
   </edge>
   <edge function="internal" id=":1118429962_0">
      <lane allow="delivery bicycle pedestrian" id=":1118429962_0_0" index="0" length="4.82" shape="428.54,196.88 430.03,196.84 430.84,197.28 430.98,198.19 430.44,199.58" speed="8.33"/>
   </edge>
   <edge function="internal" id=":1118429969_0">
      <lane allow="delivery bicycle pedestrian" id=":1118429969_0_0" index="0" length="5.12" shape="370.99,212.21 370.05,211.21 369.00,210.76 367.83,210.86 366.55,211.51" speed="8.33"/>
   </edge>
   <edge function="internal" id=":1118429969_1">
      <lane allow="delivery bicycle pedestrian" id=":1118429969_1_0" index="0" length="9.58" shape="370.99,212.21 365.36,204.46" speed="8.33"/>
   </edge>
   <edge function="internal" id=":1118429969_2">
      <lane allow="delivery bicycle pedestrian" id=":1118429969_2_0" index="0" length="10.29" shape="370.99,212.21 369.72,209.69 369.55,207.36 370.46,205.21 372.45,203.25" speed="8.33"/>
   </edge>
   <edge function="internal" id=":1118429969_3">
      <lane allow="delivery bicycle pedestrian" id=":1118429969_3_0" index="0" length="4.82" shape="370.99,212.21 370.96,210.73 371.41,209.92 372.32,209.79 373.70,210.34" speed="8.33"/>
   </edge>
   <edge function="internal" id=":1118429969_4">
      <lane allow="delivery bicycle pedestrian" id=":1118429969_4_0" index="0" length="5.08" shape="374.40,205.91 373.43,206.87 372.98,207.93 373.07,209.09 373.70,210.34" speed="8.33"/>
   </edge>
   <edge function="internal" id=":1118429969_5">
      <lane allow="delivery bicycle pedestrian" id=":1118429969_5_0" index="0" length="9.65" shape="374.40,205.91 366.55,211.51" speed="8.33"/>
   </edge>
   <edge function="internal" id=":1118429969_6">
      <lane allow="delivery bicycle pedestrian" id=":1118429969_6_0" index="0" length="10.41" shape="374.40,205.91 371.93,207.22 369.60,207.42 367.41,206.50 365.36,204.46" speed="8.33"/>
   </edge>
   <edge function="internal" id=":1118429969_7">
      <lane allow="delivery bicycle pedestrian" id=":1118429969_7_0" index="0" length="4.82" shape="374.40,205.91 372.92,205.98 372.10,205.56 371.94,204.65 372.45,203.25" speed="8.33"/>
   </edge>
   <edge function="internal" id=":1118429969_8">
      <lane allow="delivery bicycle pedestrian" id=":1118429969_8_0" index="0" length="5.15" shape="367.98,202.46 369.01,203.49 370.10,203.96 371.24,203.88 372.45,203.25" speed="8.33"/>
   </edge>
   <edge function="internal" id=":1118429969_9">
      <lane allow="delivery bicycle pedestrian" id=":1118429969_9_0" index="0" length="9.74" shape="367.98,202.46 373.70,210.34" speed="8.33"/>
   </edge>
   <edge function="internal" id=":1118429969_10">
      <lane allow="delivery bicycle pedestrian" id=":1118429969_10_0" index="0" length="10.56" shape="367.98,202.46 369.40,205.00 369.64,207.36 368.69,209.53 366.55,211.51" speed="8.33"/>
   </edge>
   <edge function="internal" id=":1118429969_11">
      <lane allow="delivery bicycle pedestrian" id=":1118429969_11_0" index="0" length="4.82" shape="367.98,202.46 368.08,203.94 367.67,204.77 366.77,204.95 365.36,204.46" speed="8.33"/>
   </edge>
   <edge function="internal" id=":1118429969_12">
      <lane allow="delivery bicycle pedestrian" id=":1118429969_12_0" index="0" length="5.06" shape="364.67,208.79 365.70,207.85 366.15,206.81 366.04,205.68 365.36,204.46" speed="8.33"/>
   </edge>
   <edge function="internal" id=":1118429969_13">
      <lane allow="delivery bicycle pedestrian" id=":1118429969_13_0" index="0" length="9.55" shape="364.67,208.79 372.45,203.25" speed="8.33"/>
   </edge>
   <edge function="internal" id=":1118429969_14">
      <lane allow="delivery bicycle pedestrian" id=":1118429969_14_0" index="0" length="10.45" shape="364.67,208.79 367.26,207.49 369.63,207.32 371.77,208.26 373.70,210.34" speed="8.33"/>
   </edge>
   <edge function="internal" id=":1118429969_15">
      <lane allow="delivery bicycle pedestrian" id=":1118429969_15_0" index="0" length="4.82" shape="364.67,208.79 366.16,208.77 366.97,209.21 367.10,210.13 366.55,211.51" speed="8.33"/>
   </edge>
   <edge function="internal" id=":1118429974_0">
      <lane disallow="tram rail_urban rail rail_electric ship" id=":1118429974_0_0" index="0" length="10.14" shape="136.74,251.22 134.15,249.72 132.35,248.68 130.54,247.65 127.93,246.19" speed="8.33"/>
   </edge>
   <edge function="internal" id=":1118429974_1">
      <lane allow="delivery bicycle pedestrian" id=":1118429974_1_0" index="0" length="5.84" shape="136.74,251.22 133.70,248.85 132.90,247.03" speed="6.95"/>
   </edge>
   <edge function="internal" id=":1118429974_2">
      <lane disallow="tram rail_urban rail rail_electric ship" id=":1118429974_2_0" index="0" length="2.41" shape="136.74,251.22 136.08,249.89 136.14,248.97" speed="8.33"/>
   </edge>
   <edge function="internal" id=":1118429974_9">
      <lane id=":1118429974_9_0" index="0" length="7.18" shape="132.90,247.03 132.63,246.42 133.53,243.91 136.39,241.33" speed="6.95"/>
   </edge>
   <edge function="internal" id=":1118429974_10">
      <lane id=":1118429974_10_0" index="0" length="2.41" shape="136.14,248.97 136.91,248.46 138.39,248.37" speed="8.33"/>
   </edge>
   <edge function="internal" id=":1118429974_3">
      <lane disallow="tram rail_urban rail rail_electric ship" id=":1118429974_3_0" index="0" length="5.67" shape="138.24,244.07 137.00,245.19 136.61,246.28 137.07,247.34 138.39,248.37" speed="6.95"/>
   </edge>
   <edge function="internal" id=":1118429974_4">
      <lane disallow="tram rail_urban rail rail_electric ship" id=":1118429974_4_0" index="0" length="11.05" shape="138.24,244.07 135.21,245.82 132.48,246.75 130.06,246.88 127.93,246.19" speed="6.95"/>
   </edge>
   <edge function="internal" id=":1118429974_5">
      <lane allow="delivery bicycle pedestrian" id=":1118429974_5_0" index="0" length="4.82" shape="138.24,244.07 136.76,244.08 135.95,243.63 135.83,242.71 136.39,241.33" speed="5.56"/>
   </edge>
   <edge function="internal" id=":1118429974_6">
      <lane allow="delivery bicycle pedestrian" id=":1118429974_6_0" index="0" length="7.43" shape="129.54,243.30 130.78,243.63 132.34,243.42 134.21,242.65 136.39,241.33" speed="6.95"/>
   </edge>
   <edge function="internal" id=":1118429974_7">
      <lane disallow="tram rail_urban rail rail_electric ship" id=":1118429974_7_0" index="0" length="10.20" shape="129.54,243.30 132.16,244.77 133.98,245.81 135.80,246.86 138.39,248.37" speed="8.33"/>
   </edge>
   <edge function="internal" id=":1118429974_8">
      <lane disallow="tram rail_urban rail rail_electric ship" id=":1118429974_8_0" index="0" length="2.41" shape="129.54,243.30 130.22,244.63 130.18,245.55" speed="8.33"/>
   </edge>
   <edge function="internal" id=":1118429974_11">
      <lane id=":1118429974_11_0" index="0" length="2.41" shape="130.18,245.55 129.42,246.07 127.93,246.19" speed="8.33"/>
   </edge>
   <edge function="internal" id=":1118429985_0">
      <lane allow="delivery bicycle pedestrian" id=":1118429985_0_0" index="0" length="4.82" shape="445.06,220.48 446.55,220.46 447.35,220.91 447.48,221.82 446.93,223.20" speed="5.56"/>
   </edge>
   <edge function="internal" id=":1118429986_0">
      <lane disallow="tram rail_urban rail rail_electric ship" id=":1118429986_0_0" index="0" length="0.10" shape="277.61,233.54 277.61,233.54" speed="13.89"/>
   </edge>
   <edge function="internal" id=":1118429986_1">
      <lane disallow="tram rail_urban rail rail_electric ship" id=":1118429986_1_0" index="0" length="2.41" shape="277.61,233.54 276.12,233.55 275.32,233.10" speed="13.89"/>
   </edge>
   <edge function="internal" id=":1118429986_4">
      <lane id=":1118429986_4_0" index="0" length="2.41" shape="275.32,233.10 275.20,232.18 275.76,230.81" speed="13.89"/>
   </edge>
   <edge function="internal" id=":1118429986_2">
      <lane disallow="tram rail_urban rail rail_electric ship" id=":1118429986_2_0" index="0" length="0.10" shape="275.76,230.81 275.76,230.81" speed="13.89"/>
   </edge>
   <edge function="internal" id=":1118429986_3">
      <lane disallow="tram rail_urban rail rail_electric ship" id=":1118429986_3_0" index="0" length="2.41" shape="275.76,230.81 277.25,230.80 278.05,231.25" speed="13.89"/>
   </edge>
   <edge function="internal" id=":1118429986_5">
      <lane id=":1118429986_5_0" index="0" length="2.41" shape="278.05,231.25 278.17,232.16 277.61,233.54" speed="13.89"/>
   </edge>
   <edge function="internal" id=":1118429989_0">
      <lane allow="delivery bicycle pedestrian" id=":1118429989_0_0" index="0" length="9.40" shape="385.41,233.32 380.16,225.52" speed="8.33"/>
   </edge>
   <edge function="internal" id=":1118429989_1">
      <lane allow="delivery bicycle pedestrian" id=":1118429989_1_0" index="0" length="10.27" shape="385.41,233.32 384.23,230.80 384.13,228.47 385.11,226.36 387.19,224.44" speed="8.33"/>
   </edge>
   <edge function="internal" id=":1118429989_2">
      <lane allow="delivery bicycle pedestrian" id=":1118429989_2_0" index="0" length="4.82" shape="385.41,233.32 385.42,231.83 385.88,231.03 386.80,230.92 388.17,231.50" speed="8.33"/>
   </edge>
   <edge function="internal" id=":1118429989_3">
      <lane allow="delivery bicycle pedestrian" id=":1118429989_3_0" index="0" length="5.04" shape="389.07,227.15 388.04,228.09 387.55,229.13 387.59,230.27 388.17,231.50" speed="8.33"/>
   </edge>
   <edge function="internal" id=":1118429989_4">
      <lane allow="delivery bicycle pedestrian" id=":1118429989_4_0" index="0" length="10.34" shape="389.07,227.15 386.53,228.42 384.20,228.57 382.08,227.61 380.16,225.52" speed="8.33"/>
   </edge>
   <edge function="internal" id=":1118429989_5">
      <lane allow="delivery bicycle pedestrian" id=":1118429989_5_0" index="0" length="4.82" shape="389.07,227.15 387.58,227.18 386.77,226.73 386.64,225.82 387.19,224.44" speed="8.33"/>
   </edge>
   <edge function="internal" id=":1118429989_6">
      <lane allow="delivery bicycle pedestrian" id=":1118429989_6_0" index="0" length="5.00" shape="382.87,223.65 383.80,224.66 384.83,225.13 385.96,225.05 387.19,224.44" speed="8.33"/>
   </edge>
   <edge function="internal" id=":1118429989_7">
      <lane allow="delivery bicycle pedestrian" id=":1118429989_7_0" index="0" length="9.47" shape="382.87,223.65 388.17,231.50" speed="8.33"/>
   </edge>
   <edge function="internal" id=":1118429989_8">
      <lane allow="delivery bicycle pedestrian" id=":1118429989_8_0" index="0" length="4.82" shape="382.87,223.65 382.90,225.14 382.45,225.95 381.54,226.07 380.16,225.52" speed="8.33"/>
   </edge>
   <edge function="internal" id=":1118430006_0">
      <lane allow="delivery bicycle pedestrian" id=":1118430006_0_0" index="0" length="4.82" shape="296.66,262.93 296.12,261.54 296.25,260.63 297.06,260.19 298.55,260.22" speed="8.33"/>
   </edge>
   <edge function="internal" id=":1118430018_0">
      <lane allow="delivery bicycle pedestrian" id=":1118430018_0_0" index="0" length="9.50" shape="236.82,201.79 231.44,193.96" speed="5.56"/>
   </edge>
   <edge function="internal" id=":1118430018_1">
      <lane allow="delivery bicycle pedestrian" id=":1118430018_1_0" index="0" length="10.32" shape="236.82,201.79 235.57,199.26 235.43,196.94 236.40,194.81 238.47,192.87" speed="6.95"/>
   </edge>
   <edge function="internal" id=":1118430018_2">
      <lane allow="delivery bicycle pedestrian" id=":1118430018_2_0" index="0" length="4.82" shape="236.82,201.79 236.80,200.30 237.24,199.49 238.16,199.37 239.54,199.92" speed="5.56"/>
   </edge>
   <edge function="internal" id=":1118430018_3">
      <lane allow="delivery bicycle pedestrian" id=":1118430018_3_0" index="0" length="5.03" shape="240.36,195.58 239.34,196.52 238.87,197.56 238.93,198.69 239.54,199.92" speed="6.95"/>
   </edge>
   <edge function="internal" id=":1118430018_4">
      <lane allow="delivery bicycle pedestrian" id=":1118430018_4_0" index="0" length="10.36" shape="240.36,195.58 237.82,196.86 235.49,197.02 233.36,196.05 231.44,193.96" speed="6.95"/>
   </edge>
   <edge function="internal" id=":1118430018_5">
      <lane allow="delivery bicycle pedestrian" id=":1118430018_5_0" index="0" length="4.82" shape="240.36,195.58 238.87,195.61 238.06,195.17 237.93,194.26 238.47,192.87" speed="8.33"/>
   </edge>
   <edge function="internal" id=":1118430018_6">
      <lane allow="delivery bicycle pedestrian" id=":1118430018_6_0" index="0" length="5.01" shape="234.16,192.09 235.09,193.10 236.12,193.57 237.24,193.49 238.47,192.87" speed="6.95"/>
   </edge>
   <edge function="internal" id=":1118430018_7">
      <lane allow="delivery bicycle pedestrian" id=":1118430018_7_0" index="0" length="9.50" shape="234.16,192.09 239.54,199.92" speed="5.56"/>
   </edge>
   <edge function="internal" id=":1118430018_8">
      <lane allow="delivery bicycle pedestrian" id=":1118430018_8_0" index="0" length="4.82" shape="234.16,192.09 234.18,193.58 233.73,194.38 232.82,194.51 231.44,193.96" speed="5.56"/>
   </edge>
   <edge function="internal" id=":1118430030_0">
      <lane allow="delivery bicycle pedestrian" id=":1118430030_0_0" index="0" length="6.06" shape="353.86,189.38 352.70,188.23 351.42,187.64 350.02,187.63 348.50,188.19" speed="8.33"/>
   </edge>
   <edge function="internal" id=":1118430030_1">
      <lane allow="delivery bicycle pedestrian" id=":1118430030_1_0" index="0" length="10.15" shape="353.86,189.38 352.05,187.00 350.83,185.31 349.68,183.57 348.09,181.03" speed="8.33"/>
   </edge>
   <edge function="internal" id=":1118430030_2">
      <lane allow="delivery bicycle pedestrian" id=":1118430030_2_0" index="0" length="10.73" shape="353.86,189.38 352.41,186.78 352.19,184.40 353.21,182.24 355.45,180.29" speed="8.33"/>
   </edge>
   <edge function="internal" id=":1118430030_3">
      <lane allow="delivery bicycle pedestrian" id=":1118430030_3_0" index="0" length="4.82" shape="353.86,189.38 353.76,187.90 354.17,187.07 355.08,186.90 356.48,187.38" speed="8.33"/>
   </edge>
   <edge function="internal" id=":1118430030_4">
      <lane allow="delivery bicycle pedestrian" id=":1118430030_4_0" index="0" length="5.10" shape="357.24,183.06 356.17,183.99 355.69,185.02 355.79,186.15 356.48,187.38" speed="8.33"/>
   </edge>
   <edge function="internal" id=":1118430030_5">
      <lane allow="delivery bicycle pedestrian" id=":1118430030_5_0" index="0" length="10.14" shape="357.24,183.06 354.72,184.67 352.95,185.76 351.14,186.78 348.50,188.19" speed="8.33"/>
   </edge>
   <edge function="internal" id=":1118430030_6">
      <lane allow="delivery bicycle pedestrian" id=":1118430030_6_0" index="0" length="10.72" shape="357.24,183.06 354.56,184.29 352.14,184.37 349.98,183.28 348.09,181.03" speed="8.33"/>
   </edge>
   <edge function="internal" id=":1118430030_7">
      <lane allow="delivery bicycle pedestrian" id=":1118430030_7_0" index="0" length="4.82" shape="357.24,183.06 355.75,183.04 354.96,182.57 354.86,181.65 355.45,180.29" speed="8.33"/>
   </edge>
   <edge function="internal" id=":1118430030_8">
      <lane allow="delivery bicycle pedestrian" id=":1118430030_8_0" index="0" length="5.35" shape="350.89,179.29 351.83,180.40 352.91,180.94 354.11,180.90 355.45,180.29" speed="8.33"/>
   </edge>
   <edge function="internal" id=":1118430030_9">
      <lane allow="delivery bicycle pedestrian" id=":1118430030_9_0" index="0" length="9.84" shape="350.89,179.29 356.48,187.38" speed="8.33"/>
   </edge>
   <edge function="internal" id=":1118430030_10">
      <lane allow="delivery bicycle pedestrian" id=":1118430030_10_0" index="0" length="10.68" shape="350.89,179.29 352.08,181.99 352.08,184.38 350.88,186.44 348.50,188.19" speed="8.33"/>
   </edge>
   <edge function="internal" id=":1118430030_11">
      <lane allow="delivery bicycle pedestrian" id=":1118430030_11_0" index="0" length="4.82" shape="350.89,179.29 350.84,180.77 350.36,181.56 349.44,181.65 348.09,181.03" speed="8.33"/>
   </edge>
   <edge function="internal" id=":1118430030_12">
      <lane allow="delivery bicycle pedestrian" id=":1118430030_12_0" index="0" length="5.08" shape="346.95,185.27 348.09,184.44 348.65,183.46 348.66,182.32 348.09,181.03" speed="8.33"/>
   </edge>
   <edge function="internal" id=":1118430030_13">
      <lane allow="delivery bicycle pedestrian" id=":1118430030_13_0" index="0" length="9.86" shape="346.95,185.27 355.45,180.29" speed="8.33"/>
   </edge>
   <edge function="internal" id=":1118430030_14">
      <lane allow="delivery bicycle pedestrian" id=":1118430030_14_0" index="0" length="10.78" shape="346.95,185.27 349.66,184.28 352.15,184.30 354.43,185.34 356.48,187.38" speed="8.33"/>
   </edge>
   <edge function="internal" id=":1118430030_15">
      <lane allow="delivery bicycle pedestrian" id=":1118430030_15_0" index="0" length="4.82" shape="346.95,185.27 348.43,185.42 349.18,185.95 349.20,186.88 348.50,188.19" speed="8.33"/>
   </edge>
   <edge function="internal" id=":1118430035_0">
      <lane allow="delivery bicycle pedestrian" id=":1118430035_0_0" index="0" length="4.98" shape="408.16,253.53 407.25,252.49 406.23,251.96 405.11,251.94 403.88,252.44" speed="6.95"/>
   </edge>
   <edge function="internal" id=":1118430035_1">
      <lane allow="delivery bicycle pedestrian" id=":1118430035_1_0" index="0" length="10.21" shape="408.16,253.53 406.97,251.01 406.86,248.70 407.83,246.60 409.89,244.71" speed="6.95"/>
   </edge>
   <edge function="internal" id=":1118430035_2">
      <lane allow="delivery bicycle pedestrian" id=":1118430035_2_0" index="0" length="4.83" shape="408.16,253.53 408.26,252.04 408.77,251.27 409.69,251.22 411.03,251.88" speed="8.33"/>
   </edge>
   <edge function="internal" id=":1118430035_3">
      <lane allow="delivery bicycle pedestrian" id=":1118430035_3_0" index="0" length="5.13" shape="411.76,247.42 410.77,248.36 410.31,249.41 410.40,250.58 411.03,251.88" speed="6.95"/>
   </edge>
   <edge function="internal" id=":1118430035_4">
      <lane allow="delivery bicycle pedestrian" id=":1118430035_4_0" index="0" length="9.34" shape="411.76,247.42 403.88,252.44" speed="5.56"/>
   </edge>
   <edge function="internal" id=":1118430035_5">
      <lane allow="delivery bicycle pedestrian" id=":1118430035_5_0" index="0" length="4.82" shape="411.76,247.42 410.27,247.45 409.47,247.00 409.34,246.09 409.89,244.71" speed="5.56"/>
   </edge>
   <edge function="internal" id=":1118430035_6">
      <lane allow="delivery bicycle pedestrian" id=":1118430035_6_0" index="0" length="8.98" shape="402.15,249.25 409.89,244.71" speed="5.56"/>
   </edge>
   <edge function="internal" id=":1118430035_7">
      <lane allow="delivery bicycle pedestrian" id=":1118430035_7_0" index="0" length="9.47" shape="402.15,249.25 405.52,249.62 408.12,250.18 409.96,250.94 411.03,251.88" speed="6.95"/>
   </edge>
   <edge function="internal" id=":1118430035_8">
      <lane allow="delivery bicycle pedestrian" id=":1118430035_8_0" index="0" length="5.31" shape="402.15,249.25 403.78,249.39 404.61,249.97 404.64,250.99 403.88,252.44" speed="5.56"/>
   </edge>
   <edge function="internal" id=":1118741028_0">
      <lane disallow="tram rail_urban rail rail_electric ship" id=":1118741028_0_0" index="0" length="9.29" shape="342.91,291.48 335.23,296.72" speed="8.33"/>
   </edge>
   <edge function="internal" id=":1118741028_1">
      <lane allow="delivery bicycle pedestrian" id=":1118741028_1_0" index="0" length="5.02" shape="342.91,291.48 340.44,292.61 338.13,292.69" speed="8.33"/>
   </edge>
   <edge function="internal" id=":1118741028_2">
      <lane disallow="tram rail_urban rail rail_electric ship" id=":1118741028_2_0" index="0" length="2.41" shape="342.91,291.48 341.42,291.47 340.62,291.00" speed="8.33"/>
   </edge>
   <edge function="internal" id=":1118741028_9">
      <lane id=":1118741028_9_0" index="0" length="5.20" shape="338.13,292.69 335.98,291.72 333.98,289.69" speed="8.33"/>
   </edge>
   <edge function="internal" id=":1118741028_10">
      <lane id=":1118741028_10_0" index="0" length="2.41" shape="340.62,291.00 340.52,290.08 341.11,288.72" speed="8.33"/>
   </edge>
   <edge function="internal" id=":1118741028_3">
      <lane disallow="tram rail_urban rail rail_electric ship" id=":1118741028_3_0" index="0" length="5.17" shape="336.62,287.71 337.64,288.76 338.73,289.28 339.89,289.26 341.11,288.72" speed="8.33"/>
   </edge>
   <edge function="internal" id=":1118741028_4">
      <lane disallow="tram rail_urban rail rail_electric ship" id=":1118741028_4_0" index="0" length="10.45" shape="336.62,287.71 338.00,290.23 338.23,292.57 337.31,294.73 335.23,296.72" speed="8.33"/>
   </edge>
   <edge function="internal" id=":1118741028_5">
      <lane allow="delivery bicycle pedestrian" id=":1118741028_5_0" index="0" length="4.82" shape="336.62,287.71 336.70,289.20 336.29,290.02 335.38,290.19 333.98,289.69" speed="8.33"/>
   </edge>
   <edge function="internal" id=":1118741028_6">
      <lane allow="delivery bicycle pedestrian" id=":1118741028_6_0" index="0" length="5.03" shape="333.31,294.03 334.31,293.07 334.76,292.03 334.65,290.91 333.98,289.69" speed="8.33"/>
   </edge>
   <edge function="internal" id=":1118741028_7">
      <lane disallow="tram rail_urban rail rail_electric ship" id=":1118741028_7_0" index="0" length="9.44" shape="333.31,294.03 341.11,288.72" speed="8.33"/>
   </edge>
   <edge function="internal" id=":1118741028_8">
      <lane disallow="tram rail_urban rail rail_electric ship" id=":1118741028_8_0" index="0" length="2.41" shape="333.31,294.03 334.80,293.98 335.61,294.41" speed="8.33"/>
   </edge>
   <edge function="internal" id=":1118741028_11">
      <lane id=":1118741028_11_0" index="0" length="2.41" shape="335.61,294.41 335.76,295.33 335.23,296.72" speed="8.33"/>
   </edge>
   <edge function="internal" id=":1118893623_0">
      <lane allow="delivery bicycle pedestrian" id=":1118893623_0_0" index="0" length="0.10" shape="331.75,154.84 331.75,154.84" speed="8.33"/>
   </edge>
   <edge function="internal" id=":1118893623_1">
      <lane allow="delivery bicycle pedestrian" id=":1118893623_1_0" index="0" length="2.41" shape="331.75,154.84 331.80,153.36 332.28,152.57" speed="8.33"/>
   </edge>
   <edge function="internal" id=":1118893623_4">
      <lane id=":1118893623_4_0" index="0" length="2.41" shape="332.28,152.57 333.20,152.49 334.55,153.10" speed="8.33"/>
   </edge>
   <edge function="internal" id=":1118893623_2">
      <lane allow="delivery bicycle pedestrian" id=":1118893623_2_0" index="0" length="0.10" shape="334.56,153.11 334.55,153.10" speed="8.33"/>
   </edge>
   <edge function="internal" id=":1118893623_3">
      <lane allow="delivery bicycle pedestrian" id=":1118893623_3_0" index="0" length="2.41" shape="334.56,153.11 334.50,154.59 334.02,155.38" speed="8.33"/>
   </edge>
   <edge function="internal" id=":1118893623_5">
      <lane id=":1118893623_5_0" index="0" length="2.41" shape="334.02,155.38 333.10,155.46 331.75,154.84" speed="8.33"/>
   </edge>
   <edge function="internal" id=":1118893640_0">
      <lane allow="delivery bicycle pedestrian" id=":1118893640_0_0" index="0" length="0.10" shape="385.02,165.17 385.03,165.17" speed="8.33"/>
   </edge>
   <edge function="internal" id=":1118893640_1">
      <lane allow="delivery bicycle pedestrian" id=":1118893640_1_0" index="0" length="2.41" shape="385.02,165.17 383.54,165.14 382.74,164.67" speed="8.33"/>
   </edge>
   <edge function="internal" id=":1118893640_4">
      <lane id=":1118893640_4_0" index="0" length="2.41" shape="382.74,164.67 382.65,163.75 383.25,162.39" speed="8.33"/>
   </edge>
   <edge function="internal" id=":1118893640_2">
      <lane allow="delivery bicycle pedestrian" id=":1118893640_2_0" index="0" length="0.10" shape="383.25,162.39 383.25,162.39" speed="8.33"/>
   </edge>
   <edge function="internal" id=":1118893640_3">
      <lane allow="delivery bicycle pedestrian" id=":1118893640_3_0" index="0" length="2.41" shape="383.25,162.39 384.73,162.42 385.53,162.89" speed="8.33"/>
   </edge>
   <edge function="internal" id=":1118893640_5">
      <lane id=":1118893640_5_0" index="0" length="2.41" shape="385.53,162.89 385.62,163.80 385.03,165.17" speed="8.33"/>
   </edge>
   <edge function="internal" id=":1121625836_0">