<?xml version="1.0" encoding="utf-8"?><!-- generated on 10/11/17 17:57:24 by SUMO polyconvert Version 0.25.0
<?xml version="1.0" encoding="UTF-8"?>

<configuration xmlns:xsi="http://www.w3.org/2001/XMLSchema-instance" xsi:noNamespaceSchemaLocation="http://sumo.dlr.de/xsd/polyconvertConfiguration.xsd">

    <input>
        <net-file value="NB_Oststadt_urban_800.net.xml"/>
        <osm-files value="NB_Oststadt_urban_800.osm"/>
        <type-file value="osmPolyconvert.typ.xml"/>
    </input>

    <output>
        <output-file value="NB_Oststadt_urban_800.poly.xml"/>
    </output>

    <projection>
        <proj.utm value="true"/>
    </projection>

    <processing>
        <poi-layer-offset value="5"/>
    </processing>

</configuration>
-->
<additional>
   <location convBoundary="-10.96,-0.00,754.18,757.12" netOffset="-387037.29,-5934770.57" origBoundary="13.294701,53.549802,13.306099,53.556484" projParameter="+proj=utm +zone=33 +ellps=WGS84 +datum=WGS84 +units=m +no_defs"/>
   <poly color="207,245,201" fill="1" id="102391794" layer="-2.00" shape="442.09,272.86 433.36,262.19 432.54,253.15 425.13,247.28 417.74,242.02 396.46,261.70 427.61,285.51 442.09,272.86" type="leisure"/>
   <poly color="red" fill="1" id="102780441" layer="-1.00" shape="450.52,622.22 449.76,606.84 448.94,606.89 435.91,607.53 433.40,607.66 434.16,623.02 450.52,622.22" type="building"/>
   <poly color="red" fill="1" id="109265044" layer="-1.00" shape="498.80,17.37 503.90,14.01 501.01,9.65 495.91,13.01 498.80,17.37" type="building"/>
   <poly color="red" fill="1" id="114770318" layer="-1.00" shape="205.89,518.83 217.95,518.50 218.27,530.09 206.21,530.42 205.89,518.83" type="building"/>
   <poly color="237,199,255" fill="1" id="114770318#1" layer="-1.00" shape="205.89,518.83 217.95,518.50 218.27,530.09 206.21,530.42 205.89,518.83" type="shop"/>
   <poly color="red" fill="1" id="136087104" layer="-1.00" shape="684.42,26.44 672.45,25.28 671.84,31.35 683.88,32.44 684.42,26.44" type="building"/>
   <poly color="red" fill="1" id="136087163" layer="-1.00" shape="717.84,41.01 718.82,34.91 707.37,33.12 706.38,39.13 717.84,41.01" type="building"/>
   <poly color="red" fill="1" id="136737022" layer="-1.00" shape="691.64,253.80 717.39,304.63 719.29,303.67 722.32,302.14 696.56,251.32 691.64,253.80" type="building"/>
   <poly color="red" fill="1" id="136737024" layer="-1.00" shape="743.18,348.94 745.54,347.98 743.18,348.94" type="building"/>
   <poly color="red" fill="1" id="136737025" layer="-1.00" shape="719.29,303.67 729.73,327.11 731.16,326.47 734.49,325.00 723.92,301.35 722.32,302.14 719.29,303.67" type="building"/>
   <poly color="red" fill="1" id="136737027" layer="-1.00" shape="731.16,326.47 740.75,349.93 743.18,348.94 745.54,347.98 735.94,324.42 734.49,325.00 731.16,326.47" type="building"/>
   <poly color="184,184,179" fill="1" id="141415893" layer="-1.00" shape="47.73,488.33 46.49,448.19 75.72,447.60 75.39,435.27 74.40,403.15 51.61,404.46 51.75,410.75 31.29,411.49 31.60,424.98 20.03,425.54 19.96,430.20 18.21,443.00 13.25,443.09 15.34,488.95 22.53,488.55 22.59,494.67 45.02,493.93 44.59,488.61 47.73,488.33" type="parking"/>
   <poly color="184,184,179" fill="0" id="152191219" layer="-1.00" shape="0.09,568.61 -0.99,535.70" type="parking"/>
   <poly color="184,184,179" fill="0" id="152191458" layer="-1.00" shape="5.81,696.96 4.62,668.78" type="parking"/>
   <poly color="194,194,130" fill="1" id="152197462" layer="-3.00" shape="53.28,622.12 52.27,597.41 78.16,596.62 86.50,600.92 92.45,603.10 92.19,620.96 53.28,622.12" type="landuse"/>
   <poly color="207,245,201" fill="1" id="152197499" layer="-2.00" shape="80.63,619.78 89.52,619.56 89.14,604.30 80.25,604.52 80.63,619.78" type="leisure"/>
   <poly color="184,184,179" fill="1" id="152197503" layer="-1.00" shape="178.78,541.25 178.56,535.55 249.14,532.81 249.36,538.50 178.78,541.25" type="parking"/>
   <poly color="184,184,179" fill="1" id="152197504" layer="-1.00" shape="479.85,525.24 478.89,513.03 583.60,504.81 584.57,517.02 479.85,525.24" type="parking"/>
   <poly color="184,184,179" fill="0" id="152295305" layer="-1.00" shape="2.67,314.89 3.99,361.37 10.64,361.18 11.45,376.62 -7.90,377.37" type="parking"/>
   <poly color="194,194,130" fill="0" id="154673974" layer="-3.00" shape="7.40,627.78 13.47,627.49 9.70,572.97 5.50,573.25" type="landuse"/>
   <poly color="194,194,130" fill="0" id="155275080" layer="-3.00" shape="479.87,746.40 493.62,744.45 538.63,740.16 563.65,737.82 620.69,730.28 624.88,729.10" type="landuse"/>
   <poly color="red" fill="0" id="157866147" layer="-1.00" shape="686.50,728.69 687.50,734.68 693.78,732.82 693.28,723.94 716.17,709.37 751.00,661.15 754.18,656.19 721.33,288.46 725.31,286.10 722.09,281.42 719.13,283.15 684.30,229.23" type="building"/>
   <poly color="red" fill="1" id="177483088" layer="-1.00" shape="39.53,404.35 50.39,403.95 50.59,409.21 39.72,409.61 39.53,404.35" type="building"/>
   <poly color="194,194,130" fill="0" id="177483089" layer="-3.00" shape="-2.16,190.86 1.00,242.26 31.84,240.70 33.61,263.24" type="landuse"/>
   <poly color="184,184,179" fill="1" id="177483137" layer="-1.00" shape="67.26,366.26 71.72,366.05 71.01,350.86 66.55,351.07 67.26,366.26" type="parking"/>
   <poly color="184,184,179" fill="1" id="177483143" layer="-1.00" shape="11.67,307.53 11.99,314.37 62.51,312.01 62.19,305.18 11.67,307.53" type="parking"/>
   <poly color="red" fill="1" id="177644736" layer="-1.00" shape="81.81,630.87 69.96,631.16 69.92,629.50 60.27,629.73 60.33,632.05 48.58,632.34 48.92,646.26 62.07,645.95 61.93,639.83 69.16,639.66 69.30,645.35 82.15,645.03 81.81,630.87" type="building"/>
   <poly color="194,194,130" fill="0" id="201724844" layer="-3.00" shape="638.94,200.00 640.45,200.60 642.14,201.76 644.11,204.95 648.51,210.52 654.96,219.94 658.65,225.70 661.48,232.56 662.11,236.44" type="landuse"/>
   <poly color="194,194,130" fill="0" id="201724845" layer="-3.00" shape="702.30,220.47 698.23,223.17 691.67,225.87 683.22,227.42 677.57,229.16 670.70,231.45 665.78,234.22 662.11,236.44" type="landuse"/>
   <poly color="194,194,130" fill="1" id="203328553" layer="-3.00" shape="297.65,551.28 300.96,617.17 387.36,612.87 386.58,592.09 385.04,560.39 384.27,545.61 297.65,551.28" type="landuse"/>
   <poly color="194,194,130" fill="1" id="203328554" layer="-3.00" shape="160.33,626.72 159.99,621.00 152.29,621.08 150.98,591.74 123.62,593.11 117.93,604.10 118.61,628.03 160.33,626.72" type="landuse"/>
   <poly color="184,184,179" fill="1" id="203328559" layer="-1.00" shape="126.74,586.03 150.72,585.15 150.99,591.53 132.32,591.83 126.74,586.03" type="parking"/>
   <poly color="184,184,179" fill="1" id="203328560" layer="-1.00" shape="217.59,612.19 217.23,600.08 233.88,599.58 234.24,611.69 217.59,612.19" type="parking"/>
   <poly color="184,184,179" fill="1" id="203328562" layer="-1.00" shape="207.48,612.31 206.12,582.89 246.12,580.92 246.24,585.69 211.15,586.68 212.12,612.13 207.48,612.31" type="parking"/>
   <poly color="red" fill="1" id="203459927" layer="-1.00" shape="349.35,238.80 357.74,238.35 357.31,230.12 351.52,230.43 348.92,230.57 349.35,238.80" type="building"/>
   <poly color="red" fill="1" id="203459928" layer="-1.00" shape="346.70,179.01 354.95,182.41 355.18,190.00 347.18,194.44 347.06,191.07 346.70,179.01" type="building"/>
   <poly color="red" fill="1" id="203493385" layer="-1.00" shape="356.07,742.11 366.87,743.42 380.39,742.71 401.86,741.58 416.22,740.84 426.53,738.34 435.49,734.10 449.56,727.44 444.08,715.82 420.94,726.90 415.52,728.38 366.75,731.22 359.39,730.12 336.51,721.48 332.30,733.17 344.44,737.73 356.07,742.11" type="building"/>
   <poly color="red" fill="0" id="203493386" layer="-1.00" shape="286.29,751.13 300.23,744.53 294.74,732.91 271.60,744.00 266.18,745.47 217.42,748.31 210.05,747.22 187.17,738.57 182.96,750.27 195.36,754.93" type="building"/>
   <poly color="red" fill="1" id="203583414" layer="-1.00" shape="236.69,276.56 234.14,224.75 224.10,225.25 224.53,234.11 225.42,252.06 226.23,268.60 226.65,277.05 236.69,276.56" type="building"/>
   <poly color="red" fill="1" id="203583415" layer="-1.00" shape="226.65,277.05 227.04,285.08 227.87,301.82 228.71,318.91 229.12,327.38 239.17,326.88 236.69,276.56 226.65,277.05" type="building"/>
   <poly color="red" fill="1" id="203946228" layer="-1.00" shape="174.46,420.10 181.11,419.85 181.47,423.24 185.49,423.01 189.74,422.76 189.54,419.34 198.63,418.94 211.26,415.40 212.85,418.69 216.41,416.89 219.98,415.23 218.53,411.89 232.24,405.06 227.17,394.17 205.11,404.84 198.34,406.83 173.86,407.87 174.46,420.10" type="building"/>
   <poly color="red" fill="1" id="203946229" layer="-1.00" shape="275.11,412.53 281.76,412.29 282.11,415.68 286.14,415.44 290.39,415.19 290.18,411.77 299.28,411.37 311.91,407.83 313.50,411.13 317.06,409.32 320.63,407.66 319.18,404.33 332.88,397.50 327.82,386.61 305.75,397.27 298.99,399.27 274.51,400.30 275.11,412.53" type="building"/>
   <poly color="red" fill="1" id="203946230" layer="-1.00" shape="83.91,369.15 84.17,373.49 90.56,373.11 90.30,368.78 83.91,369.15" type="building"/>
   <poly color="red" fill="1" id="203946231" layer="-1.00" shape="395.08,50.17 392.19,45.91 388.21,48.60 391.11,52.87 395.08,50.17" type="building"/>
   <poly color="184,184,179" fill="1" id="203946245" layer="-1.00" shape="105.57,369.64 143.57,367.65 146.58,367.49 144.86,334.73 121.18,335.97 121.47,341.34 115.58,341.65 116.20,353.35 107.47,353.82 107.73,358.73 105.01,358.88 105.57,369.64" type="parking"/>
   <poly color="184,184,179" fill="1" id="203946246" layer="-1.00" shape="76.01,368.94 103.06,367.50 102.30,353.34 98.47,353.54 98.21,348.54 75.00,349.77 76.01,368.94" type="parking"/>
   <poly color="235,235,227" fill="0" id="210573019" layer="-3.00" shape="717.87,711.32 753.72,658.95" type="residential"/>
   <poly color="194,194,130" fill="1" id="236696572" layer="-3.00" shape="368.11,350.96 371.37,357.27 367.78,363.97 363.06,370.06 360.85,366.07 359.60,360.42 360.51,356.83 368.11,350.96" type="landuse"/>
   <poly color="194,194,130" fill="0" id="236696576" layer="-3.00" shape="702.30,220.47 690.14,211.66 672.55,203.67 653.30,199.70 638.94,200.00" type="landuse"/>
   <poly color="140,196,107" fill="1" id="256871505" layer="-3.00" shape="629.09,156.75 653.45,179.58 689.20,187.24 689.10,153.20 692.91,104.15 670.31,95.83 673.82,49.27 657.01,45.06 651.36,17.16 627.12,14.20 566.75,17.77 599.12,62.75 598.84,80.85 616.23,94.63 621.96,140.96 629.09,156.75" type="forest"/>
   <poly color="194,194,130" fill="0" id="258896021" layer="-3.00" shape="724.29,256.33 713.44,264.92 724.39,277.83 732.40,285.84 729.90,294.37" type="landuse"/>
   <poly color="194,194,130" fill="0" id="259160925" layer="-3.00" shape="-0.99,186.50 -1.00,182.63 -0.91,176.02 7.98,174.20 25.40,173.38 36.17,173.38 55.00,176.97 54.35,181.54 56.75,181.22 60.30,181.02 62.53,178.94 61.82,176.18 60.19,173.97 37.85,168.92 25.52,168.28 5.46,168.18" type="landuse"/>
   <poly color="184,184,179" fill="1" id="259160927" layer="-1.00" shape="-0.10,181.48 -0.09,176.24 7.15,174.99 25.68,173.85 36.08,174.11 54.45,177.27 53.63,182.28 33.05,179.93 -0.10,181.48" type="parking"/>
   <poly color="184,184,179" fill="1" id="274759000" layer="-1.00" shape="739.78,403.41 729.45,371.03 717.56,343.14 693.31,291.39 680.63,265.19 689.46,261.22 709.52,304.23 728.35,345.04 737.18,364.73 742.70,379.97 739.78,403.41" type="parking"/>
   <poly color="184,184,179" fill="1" id="274759001" layer="-1.00" shape="610.74,463.66 607.42,447.45 627.70,432.22 633.23,459.36 610.74,463.66" type="parking"/>
   <poly color="184,184,179" fill="1" id="282887129" layer="-1.00" shape="284.09,537.41 283.86,531.88 373.80,528.16 374.03,533.69 284.09,537.41" type="parking"/>
   <poly color="184,184,179" fill="1" id="282887130" layer="-1.00" shape="380.22,402.42 397.03,395.16 412.17,436.87 416.87,470.49 400.87,471.68 394.15,438.37 380.22,402.42" type="parking"/>
   <poly color="184,184,179" fill="1" id="282887131" layer="-1.00" shape="263.72,526.79 270.80,526.49 267.49,437.25 259.98,437.34 263.72,526.79" type="parking"/>
   <poly color="184,184,179" fill="1" id="282887132" layer="-1.00" shape="250.46,527.12 257.93,526.80 254.02,437.84 246.56,438.17 250.46,527.12" type="parking"/>
   <poly color="red" fill="1" id="282887133" layer="-1.00" shape="85.59,474.89 99.12,474.30 98.03,449.52 84.50,450.11 85.59,474.89" type="building"/>
   <poly color="184,184,179" fill="1" id="282887602" layer="-1.00" shape="572.59,621.13 590.22,620.31 589.44,603.67 571.81,604.49 572.59,621.13" type="parking"/>
   <poly color="184,184,179" fill="1" id="282887603" layer="-1.00" shape="570.90,601.87 588.77,600.70 587.64,583.47 569.77,584.64 570.90,601.87" type="parking"/>
   <poly color="red" fill="1" id="282887604" layer="-1.00" shape="623.16,587.56 628.38,586.51 626.65,577.94 621.44,578.99 623.16,587.56" type="building"/>
   <poly color="184,184,179" fill="1" id="282887605" layer="-1.00" shape="732.29,648.55 748.47,648.52 748.68,638.77 743.11,557.67 731.50,581.44 732.29,648.55" type="parking"/>
   <poly color="181,209,209" fill="1" id="28361226" layer="-4.00" shape="546.08,209.18 554.18,204.04 575.33,184.84 608.88,145.60 612.26,134.17 608.90,117.56 601.21,105.31 592.68,102.69 572.12,113.88 543.71,134.20 508.67,167.50 506.10,179.48 510.13,190.41 529.41,207.20 537.78,209.27 546.08,209.18" type="water"/>
   <poly color="red" fill="1" id="28770595" layer="-1.00" shape="431.65,30.18 417.35,10.22 392.32,28.08 406.61,48.04 431.65,30.18" type="building"/>
   <poly color="207,245,201" fill="1" id="28770595#1" layer="-2.00" shape="431.65,30.18 417.35,10.22 392.32,28.08 406.61,48.04 431.65,30.18" type="leisure"/>
   <poly color="79,230,125" fill="1" id="28770595#2" layer="-2.00" shape="431.65,30.18 417.35,10.22 392.32,28.08 406.61,48.04 431.65,30.18" type="sport"/>
   <poly color="red" fill="1" id="28774413" layer="-1.00" shape="372.81,40.73 379.94,35.63 365.39,15.41 371.44,11.08 378.15,20.41 391.28,11.01 359.85,8.16 355.73,16.90 372.81,40.73" type="building"/>
   <poly color="207,245,201" fill="0" id="28812669" layer="-2.00" shape="246.76,107.71 358.08,103.36" type="leisure"/>
   <poly color="207,245,201" fill="1" id="28812678" layer="-2.00" shape="241.59,109.54 240.93,57.91 151.11,60.62 152.34,112.25 241.59,109.54" type="leisure"/>
   <poly color="207,245,201" fill="1" id="28812682" layer="-2.00" shape="181.40,42.88 233.15,41.64 181.40,42.88" type="leisure"/>
   <poly color="207,245,201" fill="1" id="28812685" layer="-2.00" shape="172.80,55.67 -7.34,62.81 172.80,55.67" type="leisure"/>
   <poly color="194,194,130" fill="1" id="28812907" layer="-3.00" shape="391.93,323.97 459.18,288.60 516.27,252.48 459.20,195.82 419.28,230.63 388.54,230.80 391.69,272.29 391.93,323.97" type="landuse"/>
   <poly color="194,194,130" fill="1" id="28812936" layer="-3.00" shape="463.15,164.97 534.34,239.88 645.01,181.06 689.07,191.93 709.31,205.64 716.59,200.93 728.31,167.16 738.84,107.88 674.28,96.37 678.76,45.75 659.91,42.23 663.76,12.62 647.68,12.32 554.00,14.66 588.15,62.67 593.59,76.16 463.15,164.97" type="landuse"/>
   <poly color="red" fill="1" id="293145882" layer="-1.00" shape="307.28,611.27 306.55,593.72 326.42,592.89 327.16,610.44 307.28,611.27" type="building"/>
   <poly color="red" fill="1" id="293171401" layer="-1.00" shape="720.86,23.09 721.86,17.08 710.40,15.19 709.41,21.20 720.86,23.09" type="building"/>
   <poly color="red" fill="1" id="293171407" layer="-1.00" shape="715.01,58.79 716.16,52.67 704.70,50.79 703.56,56.91 715.01,58.79" type="building"/>
   <poly color="red" fill="1" id="293171414" layer="-1.00" shape="713.09,70.60 714.08,64.59 702.62,62.70 701.63,68.71 713.09,70.60" type="building"/>
   <poly color="red" fill="1" id="293171420" layer="-1.00" shape="712.04,76.68 713.09,70.60 701.63,68.71 700.58,74.79 712.04,76.68" type="building"/>
   <poly color="red" fill="1" id="293171427" layer="-1.00" shape="708.37,87.84 709.32,82.10 697.85,80.22 696.90,85.95 708.37,87.84" type="building"/>
   <poly color="red" fill="1" id="293171434" layer="-1.00" shape="707.36,93.94 708.37,87.84 696.90,85.95 695.91,92.06 707.36,93.94" type="building"/>
   <poly color="red" fill="1" id="293171436" layer="-1.00" shape="655.16,0.82" type="building"/>
   <poly color="red" fill="1" id="293171448" layer="-1.00" shape="739.09,56.15" type="building"/>
   <poly color="red" fill="0" id="293171452" layer="-1.00" shape="739.09,56.15 738.19,62.19" type="building"/>
   <poly color="red" fill="0" id="293171455" layer="-1.00" shape="737.31,68.18 736.37,74.09" type="building"/>
   <poly color="red" fill="0" id="293171459" layer="-1.00" shape="736.37,74.09 735.44,79.98" type="building"/>
   <poly color="red" fill="1" id="293171463" layer="-1.00" shape="719.73,29.19 720.86,23.09 709.41,21.20 708.26,27.40 719.73,29.19" type="building"/>
   <poly color="red" fill="0" id="293171471" layer="-1.00" shape="734.61,85.89 733.67,91.80" type="building"/>
   <poly color="red" fill="0" id="293171475" layer="-1.00" shape="733.67,91.80 732.59,97.95" type="building"/>
   <poly color="red" fill="1" id="293171480" layer="-1.00" shape="685.03,20.37 673.00,19.28 672.45,25.28 684.42,26.44 685.03,20.37" type="building"/>
   <poly color="red" fill="1" id="293171484" layer="-1.00" shape="718.82,34.91 719.73,29.19 708.26,27.40 707.37,33.12 718.82,34.91" type="building"/>
   <poly color="red" fill="1" id="293171488" layer="-1.00" shape="685.63,14.51 673.58,13.41 673.00,19.28 685.03,20.37 685.63,14.51" type="building"/>
   <poly color="red" fill="1" id="293171496" layer="-1.00" shape="716.16,52.67 717.15,46.66 705.70,44.79 704.70,50.79 716.16,52.67" type="building"/>
   <poly color="red" fill="1" id="311217692" layer="-1.00" shape="-0.41,136.59 52.88,134.95 51.99,106.31 -1.30,107.95 -0.41,136.59" type="building"/>
   <poly color="red" fill="1" id="311218128" layer="-1.00" shape="335.29,570.35 334.55,552.81 354.43,551.98 355.17,569.52 335.29,570.35" type="building"/>
   <poly color="red" fill="1" id="311218129" layer="-1.00" shape="305.36,571.07 304.63,553.52 324.50,552.69 325.24,570.24 305.36,571.07" type="building"/>
   <poly color="red" fill="1" id="311218130" layer="-1.00" shape="336.68,609.85 335.95,592.31 355.83,591.48 356.56,609.02 336.68,609.85" type="building"/>
   <poly color="237,199,199" fill="1" id="314288348" layer="-1.00" shape="374.41,71.93 458.59,12.47 374.41,71.93" type="amenity"/>
   <poly color="184,184,179" fill="1" id="32700356" layer="-1.00" shape="350.41,270.47 359.49,279.96 372.82,308.30 366.92,311.39 372.63,323.10 389.33,316.28 387.95,270.74 387.49,264.51 349.88,267.58 350.41,270.47" type="parking"/>
   <poly color="184,184,179" fill="1" id="33876717" layer="-1.00" shape="511.54,9.68" type="parking"/>
   <poly color="184,184,179" fill="1" id="383731049" layer="-1.00" shape="148.79,524.06 158.11,523.78 155.63,443.83 146.32,444.12 148.79,524.06" type="parking"/>
   <poly color="184,184,179" fill="1" id="383731050" layer="-1.00" shape="160.97,523.92 170.28,523.63 167.81,443.69 158.50,443.98 160.97,523.92" type="parking"/>
   <poly color="red" fill="1" id="383756716" layer="-1.00" shape="373.40,609.81 373.18,602.91 385.47,602.50 385.70,609.41 373.40,609.81" type="building"/>
   <poly color="red" fill="1" id="383756717" layer="-1.00" shape="372.96,596.03 372.75,589.16 385.04,588.75 385.25,595.63 372.96,596.03" type="building"/>
   <poly color="red" fill="1" id="383756718" layer="-1.00" shape="373.18,602.91 372.96,596.03 385.25,595.63 385.47,602.50 373.18,602.91" type="building"/>
   <poly color="184,184,179" fill="1" id="416998302" layer="-1.00" shape="114.64,187.77 113.18,191.88 142.22,200.02 152.21,201.41 152.68,196.97 114.64,187.77" type="parking"/>
   <poly color="red" fill="1" id="416998306" layer="-1.00" shape="363.05,579.62 361.77,551.55 381.22,550.66 382.49,578.74 363.05,579.62" type="building"/>
   <poly color="red" fill="1" id="52606030" layer="-1.00" shape="542.06,64.79 515.17,23.88 503.79,31.33 506.62,35.64 514.58,47.75 519.86,55.77 527.76,67.79 530.68,72.23 542.06,64.79" type="building"/>
   <poly color="red" fill="1" id="52606041" layer="-1.00" shape="502.44,8.70 499.32,4.01 492.71,15.12 495.91,13.01 501.01,9.65 502.44,8.70" type="building"/>
   <poly color="red" fill="1" id="52606046" layer="-1.00" shape="445.03,107.89 441.14,102.34 434.35,92.64 427.34,82.64 420.37,72.67 416.67,67.39 406.18,74.70 434.53,115.20 445.03,107.89" type="building"/>
   <poly color="red" fill="1" id="52606048" layer="-1.00" shape="492.24,99.80 486.41,103.67 476.31,110.34 466.95,116.54 456.25,123.62 451.50,126.76 458.36,137.08 499.10,110.12 492.24,99.80" type="building"/>
   <poly color="red" fill="1" id="52606054" layer="-1.00" shape="532.15,73.25 526.48,76.97 516.99,83.19 506.85,89.85 497.03,96.29 492.31,99.39 499.45,110.21 539.29,84.08 532.15,73.25" type="building"/>
   <poly color="red" fill="1" id="52736664" layer="-1.00" shape="492.53,313.20 447.35,334.75 452.16,344.79 460.01,341.05 468.62,336.95 480.24,331.40 490.24,326.62 497.34,323.24 492.53,313.20" type="building"/>
   <poly color="red" fill="1" id="52736665" layer="-1.00" shape="553.94,320.99 571.26,367.88 581.73,364.03 579.00,356.64 575.65,347.58 572.14,338.07 568.62,328.54 564.41,317.14 553.94,320.99" type="building"/>
   <poly color="red" fill="1" id="52736666" layer="-1.00" shape="626.30,361.70 628.46,369.40 631.33,379.65 634.88,392.33 637.67,402.26 639.79,409.83 650.53,406.84 637.04,358.72 626.30,361.70" type="building"/>
   <poly color="red" fill="1" id="52736667" layer="-1.00" shape="614.10,302.00 615.71,309.78 618.10,321.28 620.59,333.29 622.89,344.41 624.24,350.94 635.17,348.69 625.04,299.75 614.10,302.00" type="building"/>
   <poly color="red" fill="1" id="52736668" layer="-1.00" shape="657.71,246.96 611.80,263.99 616.20,275.80 621.59,273.80 632.08,269.90 644.51,265.28 655.26,261.30 662.11,258.75 657.71,246.96" type="building"/>
   <poly color="red" fill="1" id="52736669" layer="-1.00" shape="547.59,290.22 501.32,309.35 505.59,319.64 512.62,316.73 522.99,312.44 534.13,307.84 545.58,303.10 551.86,300.50 547.59,290.22" type="building"/>
   <poly color="red" fill="1" id="52736670" layer="-1.00" shape="426.08,467.76 430.16,517.56 441.28,516.65 440.90,512.10 439.95,500.42 439.04,489.42 437.94,475.97 437.19,466.86 426.08,467.76" type="building"/>
   <poly color="red" fill="1" id="52736671" layer="-1.00" shape="426.01,409.88 426.23,459.85 437.39,459.81 437.37,455.34 437.31,443.09 437.26,431.03 437.21,419.46 437.17,409.83 426.01,409.88" type="building"/>
   <poly color="red" fill="1" id="52736672" layer="-1.00" shape="434.05,349.07 425.38,398.28 436.36,400.20 438.25,389.44 439.78,380.80 441.73,369.71 443.36,360.44 445.03,350.99 434.05,349.07" type="building"/>
   <poly color="red" fill="1" id="52736673" layer="-1.00" shape="525.73,499.47 533.49,498.64 544.30,497.48 555.59,496.27 565.54,495.20 575.52,494.14 574.33,483.06 524.53,488.41 525.73,499.47" type="building"/>
   <poly color="red" fill="1" id="52736674" layer="-1.00" shape="465.67,498.98 472.22,499.17 483.75,499.52 496.46,499.90 507.68,500.24 515.74,500.48 516.08,489.36 466.02,487.86 465.67,498.98" type="building"/>
   <poly color="red" fill="1" id="52736675" layer="-1.00" shape="573.67,374.06 584.76,422.79 595.64,420.33 594.07,413.44 591.74,403.17 588.75,390.04 586.26,379.07 584.56,371.60 573.67,374.06" type="building"/>
   <poly color="red" fill="1" id="52736676" layer="-1.00" shape="585.15,429.75 577.21,479.09 588.23,480.86 589.62,472.23 591.19,462.45 593.09,450.62 594.53,441.74 596.16,431.53 585.15,429.75" type="building"/>
   <poly color="red" fill="1" id="52736677" layer="-1.00" shape="659.58,287.46 679.80,331.40 691.43,326.07 688.51,319.72 684.38,310.75 678.90,298.86 674.09,288.40 671.21,282.13 659.58,287.46" type="building"/>
   <poly color="red" fill="1" id="52736678" layer="-1.00" shape="677.26,478.99 684.38,477.14 692.42,475.05 707.00,471.25 718.20,468.33 725.72,466.37 722.91,455.60 674.45,468.23 677.26,478.99" type="building"/>
   <poly color="red" fill="1" id="52736679" layer="-1.00" shape="643.31,418.77 646.43,427.11 650.11,436.94 654.71,449.24 658.37,459.04 660.82,465.58 671.27,461.69 653.76,414.89 643.31,418.77" type="building"/>
   <poly color="red" fill="1" id="52736680" layer="-1.00" shape="705.33,396.21 717.03,442.87 729.40,439.79 727.96,434.03 725.51,424.29 722.28,411.38 719.48,400.23 717.70,393.12 705.33,396.21" type="building"/>
   <poly color="red" fill="1" id="52736681" layer="-1.00" shape="685.10,341.49 702.09,386.83 713.62,382.53 710.83,375.09 707.41,365.97 702.86,353.81 699.41,344.62 696.63,337.19 685.10,341.49" type="building"/>
   <poly color="red" fill="1" id="52737112" layer="-1.00" shape="598.03,555.89 648.07,558.18 648.58,547.07 642.15,546.77 630.13,546.23 618.15,545.68 606.00,545.13 598.55,544.79 598.03,555.89" type="building"/>
   <poly color="red" fill="1" id="52737113" layer="-1.00" shape="605.09,507.66 641.42,500.20 640.08,493.72 644.15,492.89 641.67,480.86 637.42,481.74 633.13,460.92 606.26,466.44 609.45,481.88 600.17,483.78 605.09,507.66" type="building"/>
   <poly color="237,199,255" fill="1" id="52737113#1" layer="-1.00" shape="605.09,507.66 641.42,500.20 640.08,493.72 644.15,492.89 641.67,480.86 637.42,481.74 633.13,460.92 606.26,466.44 609.45,481.88 600.17,483.78 605.09,507.66" type="shop"/>
   <poly color="red" fill="1" id="52737114" layer="-1.00" shape="538.57,559.37 588.62,557.41 588.19,546.29 580.13,546.62 568.35,547.07 557.40,547.50 544.72,547.99 538.14,548.25 538.57,559.37" type="building"/>
   <poly color="red" fill="1" id="52737115" layer="-1.00" shape="481.05,569.71 530.33,561.11 527.77,546.52 520.10,547.86 507.45,550.06 496.00,552.07 484.68,554.04 478.49,555.13 481.05,569.71" type="building"/>
   <poly color="red" fill="1" id="52768029" layer="-1.00" shape="608.62,667.11 615.41,664.53 625.92,660.55 637.94,655.99 646.99,652.56 655.43,649.37 651.48,638.95 604.66,656.70 608.62,667.11" type="building"/>
   <poly color="red" fill="1" id="52768030" layer="-1.00" shape="645.39,581.30 654.95,630.36 665.91,628.22 664.55,621.26 662.24,609.39 659.94,597.66 657.59,585.61 656.34,579.19 645.39,581.30" type="building"/>
   <poly color="red" fill="1" id="52768031" layer="-1.00" shape="626.92,718.07 635.01,714.99 650.61,709.05 666.04,703.16 673.72,700.24 669.74,689.85 622.94,707.67 626.92,718.07" type="building"/>
   <poly color="red" fill="1" id="52768032" layer="-1.00" shape="452.81,626.29 457.01,626.55 468.98,627.30 480.98,628.05 493.60,628.83 500.47,629.25 501.28,616.46 453.61,613.50 452.81,626.29" type="building"/>
   <poly color="red" fill="1" id="52768033" layer="-1.00" shape="433.50,558.93 433.95,568.09 434.46,578.37 434.99,588.91 435.49,599.00 435.91,607.53 448.94,606.89 446.53,558.28 433.50,558.93" type="building"/>
   <poly color="red" fill="1" id="52768034" layer="-1.00" shape="512.55,628.45 520.31,627.25 530.26,625.54 541.27,623.64 552.73,621.66 561.92,620.07 560.06,609.11 550.04,610.81 539.10,612.66 528.57,614.45 518.94,616.08 510.69,617.48 512.55,628.45" type="building"/>
   <poly color="red" fill="1" id="52768035" layer="-1.00" shape="548.23,678.30 553.58,677.48 554.92,677.27 565.74,675.61 568.46,675.19 578.52,673.64 591.04,671.73 592.99,671.42 597.73,670.70 596.04,659.69 546.54,667.29 548.23,678.30" type="building"/>
   <poly color="red" fill="1" id="52768036" layer="-1.00" shape="490.01,682.27 496.84,681.90 508.69,681.27 520.00,680.65 533.15,679.95 540.02,679.59 539.42,668.48 489.42,671.14 490.01,682.27" type="building"/>
   <poly color="red" fill="1" id="52768037" layer="-1.00" shape="430.50,669.54 436.87,670.96 449.06,673.65 460.13,676.10 473.51,679.06 474.39,679.25 479.39,680.35 481.81,669.49 432.91,658.68 430.50,669.54" type="building"/>
   <poly color="red" fill="1" id="52768038" layer="-1.00" shape="499.92,732.13 510.18,731.68 525.26,731.03 541.81,730.31 550.95,729.91 550.46,718.57 499.42,720.79 499.92,732.13" type="building"/>
   <poly color="red" fill="1" id="52768039" layer="-1.00" shape="560.03,728.96 569.23,727.42 585.00,724.78 601.68,721.99 609.42,720.69 607.58,709.72 558.18,717.99 560.03,728.96" type="building"/>
   <poly color="red" fill="1" id="52768041" layer="-1.00" shape="683.97,690.35 689.66,682.35 699.22,668.93 708.50,655.88 712.97,649.61 703.87,643.16 674.89,683.91 683.97,690.35" type="building"/>
   <poly color="red" fill="1" id="52768042" layer="-1.00" shape="714.86,576.43 711.15,566.74 705.63,552.31 699.93,537.39 697.00,529.74 686.58,533.71 704.43,580.40 714.86,576.43" type="building"/>
   <poly color="red" fill="1" id="52768043" layer="-1.00" shape="718.91,637.37 718.52,628.09 717.86,611.91 717.17,595.27 716.85,587.45 705.71,587.91 707.76,637.83 718.91,637.37" type="building"/>
   <poly color="red" fill="1" id="52769395" layer="-1.00" shape="287.58,618.95 286.21,569.01 275.05,569.32 275.28,577.42 275.76,594.97 276.21,610.92 276.44,619.25 287.58,618.95" type="building"/>
   <poly color="red" fill="1" id="52769396" layer="-1.00" shape="294.63,690.37 234.10,693.23 234.24,696.18 234.71,706.19 250.38,705.45 280.35,704.04 295.25,703.33 294.63,690.37" type="building"/>
   <poly color="red" fill="1" id="52769397" layer="-1.00" shape="291.07,525.42 287.72,440.22 277.13,440.63 277.50,450.16 278.13,466.35 278.81,483.66 279.47,500.41 280.11,516.81 280.47,525.83 291.07,525.42" type="building"/>
   <poly color="red" fill="1" id="52769399" layer="-1.00" shape="100.97,568.24 50.99,570.69 51.54,581.82 59.22,581.45 76.35,580.61 91.52,579.86 101.52,579.37 101.48,578.67 100.97,568.24" type="building"/>
   <poly color="red" fill="1" id="52769400" layer="-1.00" shape="113.92,628.30 112.54,578.36 101.48,578.67 101.52,579.37 101.51,586.96 102.21,603.84 102.55,620.54 102.77,628.60 113.92,628.30" type="building"/>
   <poly color="red" fill="1" id="52769401" layer="-1.00" shape="140.31,533.05 139.90,523.47 139.20,506.86 138.53,491.13 137.81,474.28 137.10,457.29 136.72,448.32 126.29,448.75 129.88,533.49 140.31,533.05" type="building"/>