<?xml version="1.0" encoding="utf-8"?><!-- generated on 10/11/17 17:57:20 by SUMO netconvert Version 0.25.0
<?xml version="1.0" encoding="UTF-8"?>

<configuration xmlns:xsi="http://www.w3.org/2001/XMLSchema-instance" xsi:noNamespaceSchemaLocation="http://sumo.dlr.de/xsd/netconvertConfiguration.xsd">

    <input>
        <type-files value="osmNetconvert.typ.xml"/>
        <osm-files value="NB_Oststadt_urban_800.osm"/>
    </input>

    <output>
        <output-file value="NB_Oststadt_urban_800.net.xml"/>
    </output>

    <projection>
        <proj.utm value="true"/>
    </projection>

    <edge_removal>
        <remove-edges.by-type value="highway.track,highway.unsurfaced,highway.raceway,highway.bridleway,highway.path,highway.footway,highway.pedestrian,highway.cycleway,highway.step,highway.steps,highway.stairs,highway.bus_guideway,highway.ford,railway.rail,railway.tram,railway.light_rail,railway.subway,railway.preserved,railway.narrow_gauge,railway.monorail,railway.funicular"/>
    </edge_removal>

</configuration>
-->
<net version="0.25">
   <location convBoundary="0.00,0.00,746.47,744.25" netOffset="-387037.29,-5934770.57" origBoundary="13.294724,53.549815,13.306089,53.556457" projParameter="+proj=utm +zone=33 +ellps=WGS84 +datum=WGS84 +units=m +no_defs"/>
   <type allow="pedestrian" id="highway.bridleway" numLanes="1" oneway="1" priority="1" speed="2.78" width="2.00"/>
   <type allow="bus" id="highway.bus_guideway" numLanes="1" oneway="1" priority="1" speed="8.33"/>
   <type allow="bicycle" id="highway.cycleway" numLanes="1" oneway="0" priority="1" speed="5.56" width="1.00"/>
   <type allow="pedestrian" id="highway.footway" numLanes="1" oneway="1" priority="1" speed="8.33" width="2.00"/>
   <type allow="army" id="highway.ford" numLanes="1" oneway="0" priority="1" speed="2.78"/>
   <type disallow="tram rail_urban rail rail_electric ship" id="highway.living_street" numLanes="1" oneway="0" priority="3" speed="2.78"/>
   <type allow="private emergency authority army vip passenger hov taxi bus coach delivery truck trailer motorcycle evehicle custom1 custom2" id="highway.motorway" numLanes="2" oneway="1" priority="13" speed="44.44"/>
   <type allow="private emergency authority army vip passenger hov taxi bus coach delivery truck trailer motorcycle evehicle custom1 custom2" id="highway.motorway_link" numLanes="1" oneway="1" priority="12" speed="22.22"/>
   <type allow="bicycle pedestrian" id="highway.path" numLanes="1" oneway="1" priority="1" speed="2.78" width="2.00"/>
   <type allow="pedestrian" id="highway.pedestrian" numLanes="1" oneway="1" priority="1" speed="8.33" width="2.00"/>
   <type disallow="tram rail_urban rail rail_electric ship" id="highway.primary" numLanes="2" oneway="0" priority="9" speed="27.78"/>
   <type disallow="tram rail_urban rail rail_electric ship" id="highway.primary_link" numLanes="1" oneway="0" priority="8" speed="22.22"/>
   <type allow="vip" id="highway.raceway" numLanes="2" oneway="0" priority="14" speed="83.33"/>
   <type disallow="tram rail_urban rail rail_electric ship" id="highway.residential" numLanes="1" oneway="0" priority="4" speed="13.89"/>
   <type disallow="tram rail_urban rail rail_electric ship" id="highway.secondary" numLanes="2" oneway="0" priority="7" speed="27.78"/>
   <type disallow="tram rail_urban rail rail_electric ship" id="highway.secondary_link" numLanes="1" oneway="0" priority="6" speed="22.22"/>
   <type allow="delivery bicycle pedestrian" id="highway.service" numLanes="1" oneway="0" priority="2" speed="5.56"/>
   <type disallow="tram rail_urban rail rail_electric ship" id="highway.services" numLanes="1" oneway="0" priority="1" speed="8.33"/>
   <type allow="pedestrian" id="highway.stairs" numLanes="1" oneway="1" priority="1" speed="1.39" width="2.00"/>
   <type allow="pedestrian" id="highway.step" numLanes="1" oneway="1" priority="1" speed="1.39" width="2.00"/>
   <type allow="pedestrian" id="highway.steps" numLanes="1" oneway="1" priority="1" speed="1.39" width="2.00"/>
   <type disallow="tram rail_urban rail rail_electric ship" id="highway.tertiary" numLanes="1" oneway="0" priority="6" speed="22.22"/>
   <type disallow="tram rail_urban rail rail_electric ship" id="highway.tertiary_link" numLanes="1" oneway="0" priority="5" speed="22.22"/>
   <type disallow="tram rail_urban rail rail_electric ship" id="highway.track" numLanes="1" oneway="0" priority="1" speed="5.56"/>
   <type disallow="tram rail_urban rail rail_electric bicycle pedestrian ship" id="highway.trunk" numLanes="2" oneway="0" priority="11" speed="27.78"/>
   <type disallow="tram rail_urban rail rail_electric bicycle pedestrian ship" id="highway.trunk_link" numLanes="1" oneway="0" priority="10" speed="22.22"/>
   <type disallow="tram rail_urban rail rail_electric ship" id="highway.unclassified" numLanes="1" oneway="0" priority="5" speed="13.89"/>
   <type disallow="tram rail_urban rail rail_electric ship" id="highway.unsurfaced" numLanes="1" oneway="0" priority="1" speed="8.33"/>
   <type allow="rail_urban" id="railway.light_rail" numLanes="1" oneway="1" priority="15" speed="27.78"/>
   <type allow="rail" id="railway.preserved" numLanes="1" oneway="1" priority="15" speed="27.78"/>
   <type allow="rail rail_electric" id="railway.rail" numLanes="1" oneway="1" priority="15" speed="83.33"/>
   <type allow="rail_urban" id="railway.subway" numLanes="1" oneway="1" priority="15" speed="27.78"/>
   <type allow="tram" id="railway.tram" numLanes="1" oneway="1" priority="15" speed="13.89"/>
   <edge function="internal" id=":1127715239_0">
      <lane disallow="tram rail_urban rail rail_electric ship" id=":1127715239_0_0" index="0" length="0.39" shape="625.71,730.43 625.34,730.57" speed="8.33"/>
   </edge>
   <edge function="internal" id=":1127715239_1">
      <lane disallow="tram rail_urban rail rail_electric ship" id=":1127715239_1_0" index="0" length="2.65" shape="625.71,730.43 624.25,730.13 623.56,729.52 623.58,729.28" speed="8.33"/>
   </edge>
   <edge function="internal" id=":1127715239_4">
      <lane id=":1127715239_4_0" index="0" length="2.17" shape="623.58,729.28 623.64,728.60 624.47,727.37" speed="8.33"/>
   </edge>
   <edge function="internal" id=":1127715239_2">
      <lane disallow="tram rail_urban rail rail_electric ship" id=":1127715239_2_0" index="0" length="2.10" shape="622.45,727.93 624.47,727.37" speed="8.33"/>
   </edge>
   <edge function="internal" id=":1127715239_3">
      <lane disallow="tram rail_urban rail rail_electric ship" id=":1127715239_3_0" index="0" length="2.86" shape="622.45,727.93 624.17,727.51 625.22,727.80" speed="8.33"/>
   </edge>
   <edge function="internal" id=":1127715239_5">
      <lane id=":1127715239_5_0" index="0" length="2.86" shape="625.22,727.80 625.61,728.82 625.34,730.57" speed="8.33"/>
   </edge>
   <edge function="internal" id=":1127715260_0">
      <lane disallow="tram rail_urban rail rail_electric ship" id=":1127715260_0_0" index="0" length="0.10" shape="617.40,725.15 617.40,725.16" speed="8.33"/>
   </edge>
   <edge function="internal" id=":1127715260_1">
      <lane disallow="tram rail_urban rail rail_electric ship" id=":1127715260_1_0" index="0" length="2.41" shape="617.40,725.15 617.82,723.72 618.49,723.09" speed="8.33"/>
   </edge>
   <edge function="internal" id=":1127715260_4">
      <lane id=":1127715260_4_0" index="0" length="2.41" shape="618.49,723.09 619.40,723.24 620.55,724.18" speed="8.33"/>
   </edge>
   <edge function="internal" id=":1127715260_2">
      <lane disallow="tram rail_urban rail rail_electric ship" id=":1127715260_2_0" index="0" length="0.10" shape="620.55,724.18 620.55,724.18" speed="8.33"/>
   </edge>
   <edge function="internal" id=":1127715260_3">
      <lane disallow="tram rail_urban rail rail_electric ship" id=":1127715260_3_0" index="0" length="2.41" shape="620.55,724.18 620.13,725.60 619.47,726.24" speed="8.33"/>
   </edge>
   <edge function="internal" id=":1127715260_5">
      <lane id=":1127715260_5_0" index="0" length="2.41" shape="619.47,726.24 618.56,726.09 617.40,725.16" speed="8.33"/>
   </edge>
   <edge function="internal" id=":1127715263_0">
      <lane disallow="tram rail_urban rail rail_electric ship" id=":1127715263_0_0" index="0" length="0.10" shape="491.19,738.16 491.19,738.20" speed="8.33"/>
   </edge>
   <edge function="internal" id=":1127715263_1">
      <lane disallow="tram rail_urban rail rail_electric ship" id=":1127715263_1_0" index="0" length="2.41" shape="491.19,738.16 491.86,736.84 492.62,736.33" speed="8.33"/>
   </edge>
   <edge function="internal" id=":1127715263_4">
      <lane id=":1127715263_4_0" index="0" length="2.41" shape="492.62,736.33 493.49,736.64 494.46,737.77" speed="8.33"/>
   </edge>
   <edge function="internal" id=":1127715263_2">
      <lane disallow="tram rail_urban rail rail_electric ship" id=":1127715263_2_0" index="0" length="0.10" shape="494.46,737.75 494.46,737.77" speed="8.33"/>
   </edge>
   <edge function="internal" id=":1127715263_3">
      <lane disallow="tram rail_urban rail rail_electric ship" id=":1127715263_3_0" index="0" length="2.41" shape="494.46,737.75 493.81,739.09 493.05,739.61" speed="8.33"/>
   </edge>
   <edge function="internal" id=":1127715263_5">
      <lane id=":1127715263_5_0" index="0" length="2.41" shape="493.05,739.61 492.17,739.31 491.19,738.20" speed="8.33"/>
   </edge>
   <edge function="internal" id=":130224444_0">
      <lane disallow="tram rail_urban rail rail_electric ship" id=":130224444_0_0" index="0" length="6.88" shape="534.60,256.64 533.13,255.35 531.62,254.71 530.07,254.72 528.47,255.38" speed="13.89"/>
   </edge>
   <edge function="internal" id=":130224444_1">
      <lane disallow="tram rail_urban rail rail_electric ship" id=":130224444_1_0" index="0" length="10.98" shape="534.60,256.64 532.52,254.31 530.97,252.52 529.47,250.69 527.52,248.25" speed="13.89"/>
   </edge>
   <edge function="internal" id=":130224444_2">
      <lane disallow="tram rail_urban rail rail_electric ship" id=":130224444_2_0" index="0" length="5.58" shape="534.60,256.64 532.74,253.85 532.45,251.63" speed="13.89"/>
   </edge>
   <edge function="internal" id=":130224444_3">
      <lane disallow="tram rail_urban rail rail_electric ship" id=":130224444_3_0" index="0" length="2.41" shape="534.60,256.64 534.39,255.16 534.73,254.31" speed="13.89"/>
   </edge>
   <edge function="internal" id=":130224444_16">
      <lane id=":130224444_16_0" index="0" length="6.15" shape="532.45,251.63 532.42,251.35 533.62,249.14 536.35,247.20" speed="13.89"/>
   </edge>
   <edge function="internal" id=":130224444_17">
      <lane id=":130224444_17_0" index="0" length="2.41" shape="534.73,254.31 535.62,254.06 537.06,254.43" speed="13.89"/>
   </edge>
   <edge function="internal" id=":130224444_4">
      <lane disallow="tram rail_urban rail rail_electric ship" id=":130224444_4_0" index="0" length="5.34" shape="537.85,250.14 536.61,251.02 536.06,252.03 536.21,253.17 537.06,254.43" speed="13.89"/>
   </edge>
   <edge function="internal" id=":130224444_5">
      <lane disallow="tram rail_urban rail rail_electric ship" id=":130224444_5_0" index="0" length="10.75" shape="537.85,250.14 535.11,251.55 533.09,252.64 531.11,253.78 528.47,255.38" speed="13.89"/>
   </edge>
   <edge function="internal" id=":130224444_6">
      <lane disallow="tram rail_urban rail rail_electric ship" id=":130224444_6_0" index="0" length="5.92" shape="537.85,250.14 534.85,251.23 532.13,251.28" speed="13.89"/>
   </edge>
   <edge function="internal" id=":130224444_7">
      <lane disallow="tram rail_urban rail rail_electric ship" id=":130224444_7_0" index="0" length="2.41" shape="537.85,250.14 536.38,249.97 535.63,249.42" speed="13.89"/>
   </edge>
   <edge function="internal" id=":130224444_18">
      <lane id=":130224444_18_0" index="0" length="5.61" shape="532.13,251.28 529.68,250.29 527.52,248.25" speed="13.89"/>
   </edge>
   <edge function="internal" id=":130224444_19">
      <lane id=":130224444_19_0" index="0" length="2.41" shape="535.63,249.42 535.62,248.50 536.35,247.20" speed="13.89"/>
   </edge>
   <edge function="internal" id=":130224444_8">
      <lane disallow="tram rail_urban rail rail_electric ship" id=":130224444_8_0" index="0" length="6.92" shape="530.12,246.20 531.39,247.39 532.85,247.95 534.50,247.89 536.35,247.20" speed="13.89"/>
   </edge>
   <edge function="internal" id=":130224444_9">
      <lane disallow="tram rail_urban rail rail_electric ship" id=":130224444_9_0" index="0" length="10.77" shape="530.12,246.20 532.04,248.62 533.50,250.39 535.00,252.13 537.06,254.43" speed="13.89"/>
   </edge>
   <edge function="internal" id=":130224444_10">
      <lane disallow="tram rail_urban rail rail_electric ship" id=":130224444_10_0" index="0" length="5.30" shape="530.12,246.20 531.64,248.85 531.86,251.08" speed="13.89"/>
   </edge>
   <edge function="internal" id=":130224444_11">
      <lane disallow="tram rail_urban rail rail_electric ship" id=":130224444_11_0" index="0" length="2.41" shape="530.12,246.20 530.23,247.69 529.84,248.52" speed="13.89"/>
   </edge>
   <edge function="internal" id=":130224444_20">
      <lane id=":130224444_20_0" index="0" length="5.65" shape="531.86,251.08 531.88,251.25 530.82,253.43 528.47,255.38" speed="13.89"/>
   </edge>
   <edge function="internal" id=":130224444_21">
      <lane id=":130224444_21_0" index="0" length="2.41" shape="529.84,248.52 528.94,248.71 527.52,248.25" speed="13.89"/>
   </edge>
   <edge function="internal" id=":130224444_12">
      <lane disallow="tram rail_urban rail rail_electric ship" id=":130224444_12_0" index="0" length="5.15" shape="526.75,252.56 527.86,251.65 528.35,250.62 528.24,249.49 527.52,248.25" speed="13.89"/>
   </edge>
   <edge function="internal" id=":130224444_13">
      <lane disallow="tram rail_urban rail rail_electric ship" id=":130224444_13_0" index="0" length="11.00" shape="526.75,252.56 529.42,250.95 531.48,249.76 533.57,248.64 536.35,247.20" speed="13.89"/>
   </edge>
   <edge function="internal" id=":130224444_14">
      <lane disallow="tram rail_urban rail rail_electric ship" id=":130224444_14_0" index="0" length="5.60" shape="526.75,252.56 529.49,251.40 532.12,251.33" speed="13.89"/>
   </edge>
   <edge function="internal" id=":130224444_15">
      <lane disallow="tram rail_urban rail rail_electric ship" id=":130224444_15_0" index="0" length="2.41" shape="526.75,252.56 528.24,252.62 529.02,253.11" speed="13.89"/>
   </edge>
   <edge function="internal" id=":130224444_22">
      <lane id=":130224444_22_0" index="0" length="5.92" shape="532.12,251.33 534.64,252.34 537.06,254.43" speed="13.89"/>
   </edge>
   <edge function="internal" id=":130224444_23">
      <lane id=":130224444_23_0" index="0" length="2.41" shape="529.02,253.11 529.10,254.03 528.47,255.38" speed="13.89"/>
   </edge>
   <edge function="internal" id=":130224445_0">
      <lane disallow="tram rail_urban rail rail_electric ship" id=":130224445_0_0" index="0" length="0.10" shape="466.99,293.90 466.99,293.90" speed="13.89"/>
   </edge>
   <edge function="internal" id=":130224445_1">
      <lane disallow="tram rail_urban rail rail_electric ship" id=":130224445_1_0" index="0" length="2.41" shape="466.99,293.90 465.50,293.82 464.73,293.32" speed="13.89"/>
   </edge>
   <edge function="internal" id=":130224445_4">
      <lane id=":130224445_4_0" index="0" length="2.41" shape="464.73,293.32 464.66,292.40 465.31,291.06" speed="13.89"/>
   </edge>
   <edge function="internal" id=":130224445_2">
      <lane disallow="tram rail_urban rail rail_electric ship" id=":130224445_2_0" index="0" length="0.10" shape="465.36,291.03 465.31,291.06" speed="13.89"/>
   </edge>
   <edge function="internal" id=":130224445_3">
      <lane disallow="tram rail_urban rail rail_electric ship" id=":130224445_3_0" index="0" length="2.41" shape="465.36,291.03 466.84,291.14 467.61,291.65" speed="13.89"/>
   </edge>
   <edge function="internal" id=":130224445_5">
      <lane id=":130224445_5_0" index="0" length="2.41" shape="467.61,291.65 467.66,292.57 466.99,293.90" speed="13.89"/>
   </edge>
   <edge function="internal" id=":130224446_0">
      <lane disallow="tram rail_urban rail rail_electric ship" id=":130224446_0_0" index="0" length="5.76" shape="348.53,359.48 347.70,358.25 346.61,357.54 345.27,357.34 343.68,357.65" speed="11.11"/>
   </edge>
   <edge function="internal" id=":130224446_1">
      <lane disallow="tram rail_urban rail rail_electric ship" id=":130224446_1_0" index="0" length="9.86" shape="348.53,359.48 344.43,350.51" speed="8.33"/>
   </edge>
   <edge function="internal" id=":130224446_2">
      <lane disallow="tram rail_urban rail rail_electric ship" id=":130224446_2_0" index="0" length="10.40" shape="348.53,359.48 347.70,356.78 347.95,354.45 349.27,352.49 351.66,350.90" speed="11.11"/>
   </edge>
   <edge function="internal" id=":130224446_3">
      <lane disallow="tram rail_urban rail rail_electric ship" id=":130224446_3_0" index="0" length="4.82" shape="348.53,359.48 348.74,358.01 349.31,357.28 350.24,357.30 351.51,358.06" speed="8.33"/>
   </edge>
   <edge function="internal" id=":130224446_4">
      <lane disallow="tram rail_urban rail rail_electric ship" id=":130224446_4_0" index="0" length="5.09" shape="353.09,353.88 351.90,354.66 351.24,355.62 351.11,356.76 351.51,358.06" speed="11.11"/>
   </edge>
   <edge function="internal" id=":130224446_5">
      <lane disallow="tram rail_urban rail rail_electric ship" id=":130224446_5_0" index="0" length="10.15" shape="353.09,353.88 350.38,355.16 348.47,355.99 346.52,356.70 343.68,357.65" speed="13.89"/>
   </edge>
   <edge function="internal" id=":130224446_6">
      <lane disallow="tram rail_urban rail rail_electric ship" id=":130224446_6_0" index="0" length="5.65" shape="353.09,353.88 350.33,354.73 347.97,354.46 347.65,354.23" speed="11.11"/>
   </edge>
   <edge function="internal" id=":130224446_7">
      <lane disallow="tram rail_urban rail rail_electric ship" id=":130224446_7_0" index="0" length="2.58" shape="353.09,353.88 351.61,353.67 350.88,353.11 350.89,352.94" speed="13.89"/>
   </edge>
   <edge function="internal" id=":130224446_16">
      <lane id=":130224446_16_0" index="0" length="5.02" shape="347.65,354.23 346.00,353.05 344.43,350.51" speed="11.11"/>
   </edge>
   <edge function="internal" id=":130224446_17">
      <lane id=":130224446_17_0" index="0" length="2.24" shape="350.89,352.94 350.90,352.18 351.66,350.90" speed="13.89"/>
   </edge>
   <edge function="internal" id=":130224446_8">
      <lane disallow="tram rail_urban rail rail_electric ship" id=":130224446_8_0" index="0" length="5.22" shape="347.45,349.17 348.23,350.44 349.18,351.15 350.33,351.31 351.66,350.90" speed="11.11"/>
   </edge>
   <edge function="internal" id=":130224446_9">
      <lane disallow="tram rail_urban rail rail_electric ship" id=":130224446_9_0" index="0" length="9.77" shape="347.45,349.17 351.51,358.06" speed="8.33"/>
   </edge>
   <edge function="internal" id=":130224446_10">
      <lane disallow="tram rail_urban rail rail_electric ship" id=":130224446_10_0" index="0" length="10.83" shape="347.45,349.17 348.26,352.07 347.90,354.45 346.37,356.31 343.68,357.65" speed="11.11"/>
   </edge>
   <edge function="internal" id=":130224446_11">
      <lane disallow="tram rail_urban rail rail_electric ship" id=":130224446_11_0" index="0" length="4.82" shape="347.45,349.17 347.20,350.64 346.61,351.35 345.69,351.30 344.43,350.51" speed="8.33"/>
   </edge>
   <edge function="internal" id=":130224446_12">
      <lane disallow="tram rail_urban rail rail_electric ship" id=":130224446_12_0" index="0" length="5.12" shape="342.65,354.51 343.92,353.88 344.64,353.00 344.81,351.88 344.43,350.51" speed="11.11"/>
   </edge>
   <edge function="internal" id=":130224446_13">
      <lane disallow="tram rail_urban rail rail_electric ship" id=":130224446_13_0" index="0" length="9.71" shape="342.65,354.51 351.66,350.90" speed="13.89"/>
   </edge>
   <edge function="internal" id=":130224446_14">
      <lane disallow="tram rail_urban rail rail_electric ship" id=":130224446_14_0" index="0" length="5.41" shape="342.65,354.51 345.53,353.97 347.97,354.38" speed="11.11"/>
   </edge>
   <edge function="internal" id=":130224446_15">
      <lane disallow="tram rail_urban rail rail_electric ship" id=":130224446_15_0" index="0" length="2.41" shape="342.65,354.51 344.08,354.91 344.73,355.56" speed="13.89"/>
   </edge>
   <edge function="internal" id=":130224446_18">
      <lane id=":130224446_18_0" index="0" length="5.20" shape="347.97,354.38 349.96,355.75 351.51,358.06" speed="11.11"/>
   </edge>
   <edge function="internal" id=":130224446_19">
      <lane id=":130224446_19_0" index="0" length="2.41" shape="344.73,355.56 344.59,356.48 343.68,357.65" speed="13.89"/>
   </edge>
   <edge function="internal" id=":130224449_0">
      <lane disallow="tram rail_urban rail rail_electric ship" id=":130224449_0_0" index="0" length="5.02" shape="252.45,379.27 252.19,377.91 251.56,376.98 250.55,376.45 249.18,376.34" speed="11.11"/>
   </edge>
   <edge function="internal" id=":130224449_1">
      <lane disallow="tram rail_urban rail rail_electric ship" id=":130224449_1_0" index="0" length="10.11" shape="252.45,379.27 252.68,376.46 253.68,374.33 255.44,372.87 257.97,372.07" speed="11.11"/>
   </edge>
   <edge function="internal" id=":130224449_2">
      <lane disallow="tram rail_urban rail rail_electric ship" id=":130224449_2_0" index="0" length="4.82" shape="252.45,379.27 253.21,377.99 254.02,377.54 254.86,377.91 255.75,379.10" speed="8.33"/>
   </edge>
   <edge function="internal" id=":130224449_3">
      <lane disallow="tram rail_urban rail rail_electric ship" id=":130224449_3_0" index="0" length="5.19" shape="258.48,375.33 257.23,375.74 256.35,376.50 255.86,377.63 255.75,379.10" speed="11.11"/>
   </edge>
   <edge function="internal" id=":130224449_4">
      <lane disallow="tram rail_urban rail rail_electric ship" id=":130224449_4_0" index="0" length="9.36" shape="258.48,375.33 249.18,376.34" speed="13.89"/>
   </edge>
   <edge function="internal" id=":130224449_5">
      <lane disallow="tram rail_urban rail rail_electric ship" id=":130224449_5_0" index="0" length="2.55" shape="258.48,375.33 257.13,374.71 256.60,373.96 256.64,373.83" speed="13.89"/>
   </edge>
   <edge function="internal" id=":130224449_9">
      <lane id=":130224449_9_0" index="0" length="2.27" shape="256.64,373.83 256.88,373.08 257.97,372.07" speed="13.89"/>
   </edge>
   <edge function="internal" id=":130224449_6">
      <lane disallow="tram rail_urban rail rail_electric ship" id=":130224449_6_0" index="0" length="9.05" shape="248.97,373.05 257.97,372.07" speed="13.89"/>
   </edge>
   <edge function="internal" id=":130224449_7">
      <lane disallow="tram rail_urban rail rail_electric ship" id=":130224449_7_0" index="0" length="4.95" shape="248.97,373.05 251.82,373.28 253.68,374.25" speed="11.11"/>
   </edge>
   <edge function="internal" id=":130224449_8">
      <lane disallow="tram rail_urban rail rail_electric ship" id=":130224449_8_0" index="0" length="2.41" shape="248.97,373.05 250.26,373.80 250.72,374.59" speed="13.89"/>
   </edge>
   <edge function="internal" id=":130224449_10">
      <lane id=":130224449_10_0" index="0" length="5.44" shape="253.68,374.25 253.89,374.36 255.20,376.30 255.75,379.10" speed="11.11"/>
   </edge>
   <edge function="internal" id=":130224449_11">
      <lane id=":130224449_11_0" index="0" length="2.41" shape="250.72,374.59 250.36,375.44 249.18,376.34" speed="13.89"/>
   </edge>
   <edge function="internal" id=":130224450_0">
      <lane allow="delivery bicycle pedestrian" id=":130224450_0_0" index="0" length="9.54" shape="1.92,393.08 1.44,383.55" speed="9.72"/>
   </edge>
   <edge function="internal" id=":130224450_1">
      <lane disallow="tram rail_urban rail rail_electric ship" id=":130224450_1_0" index="0" length="10.35" shape="1.92,393.08 2.17,390.27 3.26,388.21 5.20,386.89 7.99,386.33" speed="13.89"/>
   </edge>
   <edge function="internal" id=":130224450_2">
      <lane disallow="tram rail_urban rail rail_electric ship" id=":130224450_2_0" index="0" length="2.69" shape="1.92,393.08 2.68,391.80 3.48,391.34 3.74,391.46" speed="13.89"/>
   </edge>
   <edge function="internal" id=":130224450_9">
      <lane id=":130224450_9_0" index="0" length="2.13" shape="3.74,391.46 4.32,391.71 5.22,392.90" speed="13.89"/>
   </edge>
   <edge function="internal" id=":130224450_3">
      <lane disallow="tram rail_urban rail rail_electric ship" id=":130224450_3_0" index="0" length="5.03" shape="8.18,389.63 6.82,389.90 5.87,390.54 5.34,391.54 5.22,392.90" speed="13.89"/>
   </edge>
   <edge function="internal" id=":130224450_4">
      <lane allow="delivery bicycle pedestrian" id=":130224450_4_0" index="0" length="3.47" shape="8.18,389.63 5.34,389.39 4.80,389.10" speed="9.72"/>
   </edge>
   <edge function="internal" id=":130224450_5">
      <lane disallow="tram rail_urban rail rail_electric ship" id=":130224450_5_0" index="0" length="2.20" shape="8.18,389.63 6.90,388.88 6.54,388.26" speed="13.89"/>
   </edge>
   <edge function="internal" id=":130224450_10">
      <lane id=":130224450_10_0" index="0" length="6.91" shape="4.80,389.10 3.27,388.29 1.97,386.35 1.44,383.55" speed="9.72"/>
   </edge>
   <edge function="internal" id=":130224450_11">
      <lane id=":130224450_11_0" index="0" length="2.62" shape="6.54,388.26 6.44,388.08 6.80,387.23 7.99,386.33" speed="13.89"/>
   </edge>
   <edge function="internal" id=":130224450_6">
      <lane disallow="tram rail_urban rail rail_electric ship" id=":130224450_6_0" index="0" length="5.01" shape="4.74,383.40 4.99,384.75 5.62,385.69 6.62,386.22 7.99,386.33" speed="9.72"/>
   </edge>
   <edge function="internal" id=":130224450_7">
      <lane disallow="tram rail_urban rail rail_electric ship" id=":130224450_7_0" index="0" length="9.51" shape="4.74,383.40 5.22,392.90" speed="9.72"/>
   </edge>
   <edge function="internal" id=":130224450_8">
      <lane allow="delivery bicycle pedestrian" id=":130224450_8_0" index="0" length="4.82" shape="4.74,383.40 3.97,384.67 3.16,385.12 2.32,384.75 1.44,383.55" speed="5.56"/>
   </edge>
   <edge function="internal" id=":130224463_0">
      <lane allow="delivery bicycle pedestrian" id=":130224463_0_0" index="0" length="3.79" shape="12.33,632.37 12.15,631.05 11.80,630.11 11.29,629.55 10.61,629.38" speed="9.72"/>
   </edge>
   <edge function="internal" id=":130224463_1">
      <lane disallow="tram rail_urban rail rail_electric ship" id=":130224463_1_0" index="0" length="9.51" shape="12.33,632.37 11.68,622.87" speed="13.89"/>
   </edge>
   <edge function="internal" id=":130224463_2">
      <lane disallow="tram rail_urban rail rail_electric ship" id=":130224463_2_0" index="0" length="2.41" shape="12.33,632.37 13.07,631.08 13.87,630.61" speed="13.89"/>
   </edge>
   <edge function="internal" id=":130224463_9">
      <lane id=":130224463_9_0" index="0" length="2.41" shape="13.87,630.61 14.72,630.97 15.63,632.15" speed="13.89"/>
   </edge>
   <edge function="internal" id=":130224463_3">
      <lane disallow="tram rail_urban rail rail_electric ship" id=":130224463_3_0" index="0" length="9.52" shape="14.98,622.64 15.63,632.15" speed="13.89"/>
   </edge>
   <edge function="internal" id=":130224463_4">
      <lane allow="delivery bicycle pedestrian" id=":130224463_4_0" index="0" length="5.78" shape="14.98,622.64 14.88,625.56 14.12,627.65 13.64,628.08" speed="9.72"/>
   </edge>
   <edge function="internal" id=":130224463_5">
      <lane disallow="tram rail_urban rail rail_electric ship" id=":130224463_5_0" index="0" length="2.41" shape="14.98,622.64 14.24,623.94 13.45,624.40" speed="13.89"/>
   </edge>
   <edge function="internal" id=":130224463_10">
      <lane id=":130224463_10_0" index="0" length="3.40" shape="13.64,628.08 12.70,628.92 10.61,629.38" speed="9.72"/>
   </edge>
   <edge function="internal" id=":130224463_11">
      <lane id=":130224463_11_0" index="0" length="2.41" shape="13.45,624.40 12.59,624.05 11.68,622.87" speed="13.89"/>
   </edge>
   <edge function="internal" id=":130224463_6">
      <lane disallow="tram rail_urban rail rail_electric ship" id=":130224463_6_0" index="0" length="4.91" shape="8.92,626.10 10.21,625.88 11.10,625.27 11.60,624.27 11.68,622.87" speed="9.72"/>
   </edge>
   <edge function="internal" id=":130224463_7">
      <lane disallow="tram rail_urban rail rail_electric ship" id=":130224463_7_0" index="0" length="10.18" shape="8.92,626.10 11.70,626.44 13.74,627.56 15.05,629.46 15.63,632.15" speed="9.72"/>
   </edge>
   <edge function="internal" id=":130224463_8">
      <lane allow="delivery bicycle pedestrian" id=":130224463_8_0" index="0" length="5.38" shape="8.92,626.10 10.57,626.29 11.40,626.89 11.42,627.92 10.61,629.38" speed="5.56"/>
   </edge>
   <edge function="internal" id=":1401134012_0">
      <lane disallow="tram rail_urban rail rail_electric ship" id=":1401134012_0_0" index="0" length="0.10" shape="15.58,690.79 15.58,690.77" speed="13.89"/>
   </edge>
   <edge function="internal" id=":1401134012_1">
      <lane disallow="tram rail_urban rail rail_electric ship" id=":1401134012_1_0" index="0" length="2.41" shape="15.58,690.79 16.32,689.50 17.12,689.04" speed="13.89"/>
   </edge>
   <edge function="internal" id=":1401134012_4">
      <lane id=":1401134012_4_0" index="0" length="2.41" shape="17.12,689.04 17.97,689.40 18.87,690.58" speed="13.89"/>
   </edge>
   <edge function="internal" id=":1401134012_2">
      <lane disallow="tram rail_urban rail rail_electric ship" id=":1401134012_2_0" index="0" length="0.10" shape="18.87,690.63 18.87,690.58" speed="13.89"/>
   </edge>
   <edge function="internal" id=":1401134012_3">
      <lane disallow="tram rail_urban rail rail_electric ship" id=":1401134012_3_0" index="0" length="2.41" shape="18.87,690.63 18.10,691.90 17.29,692.34" speed="13.89"/>
   </edge>
   <edge function="internal" id=":1401134012_5">
      <lane id=":1401134012_5_0" index="0" length="2.41" shape="17.29,692.34 16.45,691.97 15.58,690.77" speed="13.89"/>
   </edge>