<?xml version="1.0" encoding="utf-8"?><!-- generated on 10/11/17 17:57:31 by SUMO netconvert Version 0.25.0
<?xml version="1.0" encoding="UTF-8"?>

<configuration xmlns:xsi="http://www.w3.org/2001/XMLSchema-instance" xsi:noNamespaceSchemaLocation="http://sumo.dlr.de/xsd/netconvertConfiguration.xsd">

    <input>
        <type-files value="osmNetconvert.typ.xml"/>
        <osm-files value="R_Altstadt_historical_800.osm"/>
    </input>

    <output>
        <output-file value="R_Altstadt_historical_800.net.xml"/>
    </output>

    <projection>
        <proj.utm value="true"/>
    </projection>

    <edge_removal>
        <remove-edges.by-type value="highway.track,highway.unsurfaced,highway.raceway,highway.bridleway,highway.path,highway.footway,highway.pedestrian,highway.cycleway,highway.step,highway.steps,highway.stairs,highway.bus_guideway,highway.ford,railway.rail,railway.tram,railway.light_rail,railway.subway,railway.preserved,railway.narrow_gauge,railway.monorail,railway.funicular"/>
    </edge_removal>

</configuration>
-->
<net version="0.25">
   <location convBoundary="0.00,0.00,821.15,808.02" netOffset="-287336.05,-5433130.27" origBoundary="12.091343,49.014593,12.102320,49.021776" projParameter="+proj=utm +zone=33 +ellps=WGS84 +datum=WGS84 +units=m +no_defs"/>
   <type allow="pedestrian" id="highway.bridleway" numLanes="1" oneway="1" priority="1" speed="2.78" width="2.00"/>
   <type allow="bus" id="highway.bus_guideway" numLanes="1" oneway="1" priority="1" speed="8.33"/>
   <type allow="bicycle" id="highway.cycleway" numLanes="1" oneway="0" priority="1" speed="5.56" width="1.00"/>
   <type allow="pedestrian" id="highway.footway" numLanes="1" oneway="1" priority="1" speed="8.33" width="2.00"/>
   <type allow="army" id="highway.ford" numLanes="1" oneway="0" priority="1" speed="2.78"/>
   <type disallow="tram rail_urban rail rail_electric ship" id="highway.living_street" numLanes="1" oneway="0" priority="3" speed="2.78"/>
   <type allow="private emergency authority army vip passenger hov taxi bus coach delivery truck trailer motorcycle evehicle custom1 custom2" id="highway.motorway" numLanes="2" oneway="1" priority="13" speed="44.44"/>
   <type allow="private emergency authority army vip passenger hov taxi bus coach delivery truck trailer motorcycle evehicle custom1 custom2" id="highway.motorway_link" numLanes="1" oneway="1" priority="12" speed="22.22"/>
   <type allow="bicycle pedestrian" id="highway.path" numLanes="1" oneway="1" priority="1" speed="2.78" width="2.00"/>
   <type allow="pedestrian" id="highway.pedestrian" numLanes="1" oneway="1" priority="1" speed="8.33" width="2.00"/>
   <type disallow="tram rail_urban rail rail_electric ship" id="highway.primary" numLanes="2" oneway="0" priority="9" speed="27.78"/>
   <type disallow="tram rail_urban rail rail_electric ship" id="highway.primary_link" numLanes="1" oneway="0" priority="8" speed="22.22"/>
   <type allow="vip" id="highway.raceway" numLanes="2" oneway="0" priority="14" speed="83.33"/>
   <type disallow="tram rail_urban rail rail_electric ship" id="highway.residential" numLanes="1" oneway="0" priority="4" speed="13.89"/>
   <type disallow="tram rail_urban rail rail_electric ship" id="highway.secondary" numLanes="2" oneway="0" priority="7" speed="27.78"/>
   <type disallow="tram rail_urban rail rail_electric ship" id="highway.secondary_link" numLanes="1" oneway="0" priority="6" speed="22.22"/>
   <type allow="delivery bicycle pedestrian" id="highway.service" numLanes="1" oneway="0" priority="2" speed="5.56"/>
   <type disallow="tram rail_urban rail rail_electric ship" id="highway.services" numLanes="1" oneway="0" priority="1" speed="8.33"/>
   <type allow="pedestrian" id="highway.stairs" numLanes="1" oneway="1" priority="1" speed="1.39" width="2.00"/>
   <type allow="pedestrian" id="highway.step" numLanes="1" oneway="1" priority="1" speed="1.39" width="2.00"/>
   <type allow="pedestrian" id="highway.steps" numLanes="1" oneway="1" priority="1" speed="1.39" width="2.00"/>
   <type disallow="tram rail_urban rail rail_electric ship" id="highway.tertiary" numLanes="1" oneway="0" priority="6" speed="22.22"/>
   <type disallow="tram rail_urban rail rail_electric ship" id="highway.tertiary_link" numLanes="1" oneway="0" priority="5" speed="22.22"/>
   <type disallow="tram rail_urban rail rail_electric ship" id="highway.track" numLanes="1" oneway="0" priority="1" speed="5.56"/>
   <type disallow="tram rail_urban rail rail_electric bicycle pedestrian ship" id="highway.trunk" numLanes="2" oneway="0" priority="11" speed="27.78"/>
   <type disallow="tram rail_urban rail rail_electric bicycle pedestrian ship" id="highway.trunk_link" numLanes="1" oneway="0" priority="10" speed="22.22"/>
   <type disallow="tram rail_urban rail rail_electric ship" id="highway.unclassified" numLanes="1" oneway="0" priority="5" speed="13.89"/>
   <type disallow="tram rail_urban rail rail_electric ship" id="highway.unsurfaced" numLanes="1" oneway="0" priority="1" speed="8.33"/>
   <type allow="rail_urban" id="railway.light_rail" numLanes="1" oneway="1" priority="15" speed="27.78"/>
   <type allow="rail" id="railway.preserved" numLanes="1" oneway="1" priority="15" speed="27.78"/>
   <type allow="rail rail_electric" id="railway.rail" numLanes="1" oneway="1" priority="15" speed="83.33"/>
   <type allow="rail_urban" id="railway.subway" numLanes="1" oneway="1" priority="15" speed="27.78"/>
   <type allow="tram" id="railway.tram" numLanes="1" oneway="1" priority="15" speed="13.89"/>
   <edge function="internal" id=":1067240271_0">
      <lane disallow="tram rail_urban rail rail_electric ship" id=":1067240271_0_0" index="0" length="6.18" shape="710.31,274.23 709.35,268.12" speed="13.89"/>
   </edge>
   <edge function="internal" id=":1067240271_1">
      <lane disallow="tram rail_urban rail rail_electric ship" id=":1067240271_1_0" index="0" length="5.07" shape="713.00,270.57 711.60,270.68 710.53,270.31 709.78,269.46 709.35,268.12" speed="9.73"/>
   </edge>
   <edge function="internal" id=":1067273139_0">
      <lane disallow="tram rail_urban rail rail_electric ship" id=":1067273139_0_0" index="0" length="5.14" shape="54.52,594.07 49.37,593.92" speed="2.78"/>
   </edge>
   <edge function="internal" id=":1067273139_1">
      <lane disallow="tram rail_urban rail rail_electric ship" id=":1067273139_1_0" index="0" length="4.60" shape="50.60,590.43 50.94,592.10 50.85,593.24 50.33,593.85 49.37,593.92" speed="2.78"/>
   </edge>
   <edge function="internal" id=":1080716479_0">
      <lane disallow="tram rail_urban rail rail_electric ship" id=":1080716479_0_0" index="0" length="9.43" shape="444.87,549.53 442.34,551.88 440.58,553.89 439.60,555.57 439.39,556.92" speed="9.72"/>
   </edge>
   <edge function="internal" id=":1080716479_1">
      <lane disallow="tram rail_urban rail rail_electric ship" id=":1080716479_1_0" index="0" length="4.82" shape="444.87,549.53 443.39,549.71 442.54,549.36 442.31,548.47 442.71,547.03" speed="5.56"/>
   </edge>
   <edge function="internal" id=":1080716479_2">
      <lane disallow="tram rail_urban rail rail_electric ship" id=":1080716479_2_0" index="0" length="5.66" shape="438.59,545.78 439.25,547.32 440.15,548.04 441.31,547.94 442.71,547.03" speed="4.17"/>
   </edge>
   <edge function="internal" id=":1080716479_3">
      <lane disallow="tram rail_urban rail rail_electric ship" id=":1080716479_3_0" index="0" length="11.21" shape="438.59,545.78 439.17,548.86 439.21,551.30 439.14,553.77 439.39,556.92" speed="8.34"/>
   </edge>
   <edge function="internal" id=":1080716479_4">
      <lane disallow="tram rail_urban rail rail_electric ship" id=":1080716479_4_0" index="0" length="4.82" shape="438.59,545.78 438.12,547.19 437.43,547.80 436.53,547.62 435.41,546.65" speed="2.78"/>
   </edge>
   <edge function="internal" id=":1083748501_0">
      <lane disallow="tram rail_urban rail rail_electric ship" id=":1083748501_0_0" index="0" length="0.10" shape="582.42,501.57 582.41,501.57" speed="5.56"/>
   </edge>
   <edge function="internal" id=":1083748501_1">
      <lane disallow="tram rail_urban rail rail_electric ship" id=":1083748501_1_0" index="0" length="2.41" shape="582.42,501.57 581.10,500.89 580.60,500.11" speed="5.56"/>
   </edge>
   <edge function="internal" id=":1083748501_4">
      <lane id=":1083748501_4_0" index="0" length="2.41" shape="580.60,500.11 580.92,499.25 582.06,498.29" speed="5.56"/>
   </edge>
   <edge function="internal" id=":1083748501_2">
      <lane disallow="tram rail_urban rail rail_electric ship" id=":1083748501_2_0" index="0" length="0.10" shape="582.10,498.29 582.06,498.29" speed="5.56"/>
   </edge>
   <edge function="internal" id=":1083748501_3">
      <lane disallow="tram rail_urban rail rail_electric ship" id=":1083748501_3_0" index="0" length="2.41" shape="582.10,498.29 583.41,498.99 583.90,499.78" speed="5.56"/>
   </edge>
   <edge function="internal" id=":1083748501_5">
      <lane id=":1083748501_5_0" index="0" length="2.41" shape="583.90,499.78 583.57,500.64 582.41,501.57" speed="5.56"/>
   </edge>
   <edge function="internal" id=":1083769599_0">
      <lane disallow="tram rail_urban rail rail_electric ship" id=":1083769599_0_0" index="0" length="4.82" shape="90.66,663.68 91.94,664.43 92.40,665.23 92.04,666.08 90.85,666.98" speed="2.78"/>
   </edge>
   <edge function="internal" id=":1162218889_0">
      <lane disallow="tram rail_urban rail rail_electric ship" id=":1162218889_0_0" index="0" length="4.82" shape="500.51,68.49 501.80,69.22 502.28,70.01 501.93,70.86 500.75,71.78" speed="13.89"/>
   </edge>
   <edge function="internal" id=":1162219140_0">
      <lane disallow="tram rail_urban rail rail_electric ship" id=":1162219140_0_0" index="0" length="5.28" shape="478.93,71.01 477.48,70.64 476.36,70.86 475.55,71.68 475.08,73.09" speed="13.89"/>
   </edge>
   <edge function="internal" id=":1162219140_1">
      <lane disallow="tram rail_urban rail rail_electric ship" id=":1162219140_1_0" index="0" length="10.65" shape="478.93,71.01 476.21,69.49 474.47,67.60 473.71,65.36 473.94,62.77" speed="13.89"/>
   </edge>
   <edge function="internal" id=":1162219140_2">
      <lane disallow="tram rail_urban rail rail_electric ship" id=":1162219140_2_0" index="0" length="4.82" shape="478.93,71.01 478.10,69.77 478.04,68.85 478.74,68.25 480.20,67.97" speed="13.89"/>
   </edge>
   <edge function="internal" id=":1162219140_3">
      <lane disallow="tram rail_urban rail rail_electric ship" id=":1162219140_3_0" index="0" length="5.89" shape="477.13,63.59 477.05,64.91 477.54,66.08 478.59,67.10 480.20,67.97" speed="13.89"/>
   </edge>
   <edge function="internal" id=":1162219140_4">
      <lane disallow="tram rail_urban rail rail_electric ship" id=":1162219140_4_0" index="0" length="9.72" shape="477.13,63.59 475.08,73.09" speed="13.89"/>
   </edge>
   <edge function="internal" id=":1162219140_5">
      <lane disallow="tram rail_urban rail rail_electric ship" id=":1162219140_5_0" index="0" length="2.41" shape="477.13,63.59 476.02,64.58 475.12,64.77" speed="13.89"/>
   </edge>
   <edge function="internal" id=":1162219140_9">
      <lane id=":1162219140_9_0" index="0" length="2.41" shape="475.12,64.77 474.43,64.17 473.94,62.77" speed="13.89"/>
   </edge>
   <edge function="internal" id=":1162219140_6">
      <lane disallow="tram rail_urban rail rail_electric ship" id=":1162219140_6_0" index="0" length="9.95" shape="471.83,72.49 473.94,62.77" speed="13.89"/>
   </edge>
   <edge function="internal" id=":1162219140_7">
      <lane disallow="tram rail_urban rail rail_electric ship" id=":1162219140_7_0" index="0" length="5.74" shape="471.83,72.49 472.87,69.41 474.61,67.63" speed="13.89"/>
   </edge>
   <edge function="internal" id=":1162219140_8">
      <lane disallow="tram rail_urban rail rail_electric ship" id=":1162219140_8_0" index="0" length="2.52" shape="471.83,72.49 472.87,71.43 473.75,71.17 473.84,71.24" speed="13.89"/>
   </edge>
   <edge function="internal" id=":1162219140_10">
      <lane id=":1162219140_10_0" index="0" length="5.74" shape="474.61,67.63 477.06,67.15 480.20,67.97" speed="13.89"/>
   </edge>
   <edge function="internal" id=":1162219140_11">
      <lane id=":1162219140_11_0" index="0" length="2.30" shape="473.84,71.24 474.49,71.73 475.08,73.09" speed="13.89"/>
   </edge>
   <edge function="internal" id=":1230289815_0">
      <lane disallow="tram rail_urban rail rail_electric ship" id=":1230289815_0_0" index="0" length="4.82" shape="149.58,450.46 148.91,451.79 148.14,452.30 147.27,451.99 146.30,450.86" speed="2.78"/>
   </edge>
   <edge function="internal" id=":1262274651_0">
      <lane disallow="tram rail_urban rail rail_electric ship" id=":1262274651_0_0" index="0" length="0.10" shape="134.99,603.09 135.00,603.09" speed="2.78"/>
   </edge>
   <edge function="internal" id=":1263103842_0">
      <lane disallow="tram rail_urban rail rail_electric ship" id=":1263103842_0_0" index="0" length="0.10" shape="285.95,633.87 285.95,633.87" speed="2.78"/>
   </edge>
   <edge function="internal" id=":1263103864_0">
      <lane disallow="tram rail_urban rail rail_electric ship" id=":1263103864_0_0" index="0" length="6.82" shape="326.93,645.24 320.36,643.40" speed="2.78"/>
   </edge>
   <edge function="internal" id=":1263103864_1">
      <lane disallow="tram rail_urban rail rail_electric ship" id=":1263103864_1_0" index="0" length="5.74" shape="326.93,645.24 325.64,644.87 324.72,644.05 324.16,642.76 323.97,641.01" speed="2.78"/>
   </edge>
   <edge function="internal" id=":1263103876_0">
      <lane disallow="tram rail_urban rail rail_electric ship" id=":1263103876_0_0" index="0" length="0.54" shape="301.04,635.04 300.52,634.91" speed="2.78"/>
   </edge>
   <edge function="internal" id=":1264774783_0">
      <lane disallow="tram rail_urban rail rail_electric ship" id=":1264774783_0_0" index="0" length="10.51" shape="102.96,583.52 100.62,585.50 98.80,586.74 96.78,587.58 93.82,588.33" speed="2.78"/>
   </edge>
   <edge function="internal" id=":1264774783_1">
      <lane disallow="tram rail_urban rail rail_electric ship" id=":1264774783_1_0" index="0" length="9.29" shape="102.96,583.52 100.35,585.35 98.26,585.92 96.70,585.23 95.66,583.26" speed="2.78"/>
   </edge>
   <edge function="internal" id=":1264774783_2">
      <lane disallow="tram rail_urban rail rail_electric ship" id=":1264774783_2_0" index="0" length="9.01" shape="98.82,582.31 99.02,584.42 98.26,586.12 96.53,587.42 93.82,588.33" speed="2.78"/>
   </edge>
   <edge function="internal" id=":1264774783_3">
      <lane disallow="tram rail_urban rail rail_electric ship" id=":1264774783_3_0" index="0" length="4.82" shape="98.82,582.31 98.38,583.73 97.71,584.37 96.80,584.21 95.66,583.26" speed="2.78"/>
   </edge>
   <edge function="internal" id=":1266757883_0">
      <lane disallow="tram rail_urban rail rail_electric ship" id=":1266757883_0_0" index="0" length="0.10" shape="229.79,690.93 229.79,690.93" speed="2.78"/>
   </edge>
   <edge function="internal" id=":1266757883_1">
      <lane disallow="tram rail_urban rail rail_electric ship" id=":1266757883_1_0" index="0" length="2.41" shape="229.79,690.93 228.41,690.37 227.84,689.64" speed="2.78"/>
   </edge>
   <edge function="internal" id=":1266757883_4">
      <lane id=":1266757883_4_0" index="0" length="2.41" shape="227.84,689.64 228.08,688.75 229.12,687.69" speed="2.78"/>
   </edge>
   <edge function="internal" id=":1266757883_2">
      <lane disallow="tram rail_urban rail rail_electric ship" id=":1266757883_2_0" index="0" length="0.10" shape="229.18,687.68 229.12,687.69" speed="2.78"/>
   </edge>
   <edge function="internal" id=":1266757883_3">
      <lane disallow="tram rail_urban rail rail_electric ship" id=":1266757883_3_0" index="0" length="2.41" shape="229.18,687.68 230.55,688.26 231.11,689.00" speed="2.78"/>
   </edge>
   <edge function="internal" id=":1266757883_5">
      <lane id=":1266757883_5_0" index="0" length="2.41" shape="231.11,689.00 230.85,689.89 229.79,690.93" speed="2.78"/>
   </edge>
   <edge function="internal" id=":1266757895_0">
      <lane disallow="tram rail_urban rail rail_electric ship" id=":1266757895_0_0" index="0" length="0.51" shape="218.81,692.91 218.30,692.97" speed="2.78"/>
   </edge>
   <edge function="internal" id=":1266757895_1">
      <lane disallow="tram rail_urban rail rail_electric ship" id=":1266757895_1_0" index="0" length="2.41" shape="218.81,692.91 217.44,692.32 216.89,691.58" speed="2.78"/>
   </edge>
   <edge function="internal" id=":1266757895_4">
      <lane id=":1266757895_4_0" index="0" length="2.41" shape="216.89,691.58 217.15,690.69 218.22,689.66" speed="2.78"/>
   </edge>
   <edge function="internal" id=":1266757895_2">
      <lane disallow="tram rail_urban rail rail_electric ship" id=":1266757895_2_0" index="0" length="0.17" shape="218.06,689.68 218.22,689.66" speed="2.78"/>
   </edge>
   <edge function="internal" id=":1266757895_3">
      <lane disallow="tram rail_urban rail rail_electric ship" id=":1266757895_3_0" index="0" length="2.41" shape="218.06,689.68 219.35,690.41 219.82,691.20" speed="2.78"/>
   </edge>
   <edge function="internal" id=":1266757895_5">
      <lane id=":1266757895_5_0" index="0" length="2.41" shape="219.82,691.20 219.47,692.06 218.30,692.97" speed="2.78"/>
   </edge>
   <edge function="internal" id=":1266968079_0">
      <lane disallow="tram rail_urban rail rail_electric ship" id=":1266968079_0_0" index="0" length="0.91" shape="109.71,577.37 109.22,578.14" speed="2.78"/>
   </edge>
   <edge function="internal" id=":1269259304_0">
      <lane disallow="tram rail_urban rail rail_electric ship" id=":1269259304_0_0" index="0" length="0.33" shape="619.98,498.08 619.65,498.12" speed="5.56"/>
   </edge>
   <edge function="internal" id=":1269259304_1">
      <lane disallow="tram rail_urban rail rail_electric ship" id=":1269259304_1_0" index="0" length="2.41" shape="619.98,498.08 618.63,497.46 618.09,496.71" speed="5.56"/>
   </edge>
   <edge function="internal" id=":1269259304_4">
      <lane id=":1269259304_4_0" index="0" length="2.41" shape="618.09,496.71 618.37,495.83 619.46,494.82" speed="5.56"/>
   </edge>
   <edge function="internal" id=":1269259304_2">
      <lane disallow="tram rail_urban rail rail_electric ship" id=":1269259304_2_0" index="0" length="0.11" shape="619.35,494.83 619.46,494.82" speed="5.56"/>
   </edge>
   <edge function="internal" id=":1269259304_3">
      <lane disallow="tram rail_urban rail rail_electric ship" id=":1269259304_3_0" index="0" length="2.41" shape="619.35,494.83 620.66,495.54 621.14,496.33" speed="5.56"/>
   </edge>
   <edge function="internal" id=":1269259304_5">
      <lane id=":1269259304_5_0" index="0" length="2.41" shape="621.14,496.33 620.81,497.19 619.65,498.12" speed="5.56"/>
   </edge>
   <edge function="internal" id=":1269259315_0">
      <lane disallow="tram rail_urban rail rail_electric ship" id=":1269259315_0_0" index="0" length="0.10" shape="624.28,497.39 624.27,497.39" speed="9.72"/>
   </edge>
   <edge function="internal" id=":1269259315_1">
      <lane disallow="tram rail_urban rail rail_electric ship" id=":1269259315_1_0" index="0" length="2.41" shape="624.28,497.39 622.91,496.81 622.35,496.08" speed="13.89"/>
   </edge>
   <edge function="internal" id=":1269259315_4">
      <lane id=":1269259315_4_0" index="0" length="2.41" shape="622.35,496.08 622.60,495.19 623.66,494.15" speed="13.89"/>
   </edge>
   <edge function="internal" id=":1269259315_2">
      <lane disallow="tram rail_urban rail rail_electric ship" id=":1269259315_2_0" index="0" length="0.10" shape="623.72,494.14 623.66,494.15" speed="9.72"/>
   </edge>
   <edge function="internal" id=":1269259315_3">
      <lane disallow="tram rail_urban rail rail_electric ship" id=":1269259315_3_0" index="0" length="2.41" shape="623.72,494.14 625.08,494.74 625.63,495.49" speed="5.56"/>
   </edge>
   <edge function="internal" id=":1269259315_5">
      <lane id=":1269259315_5_0" index="0" length="2.41" shape="625.63,495.49 625.36,496.37 624.27,497.39" speed="5.56"/>
   </edge>
   <edge function="internal" id=":1270232229_0">
      <lane allow="delivery bicycle pedestrian" id=":1270232229_0_0" index="0" length="2.77" shape="627.36,450.01 627.32,449.24 627.55,448.67 628.04,448.30 628.79,448.12" speed="5.56"/>
   </edge>
   <edge function="internal" id=":1270232252_0">
      <lane allow="delivery bicycle pedestrian" id=":1270232252_0_0" index="0" length="0.32" shape="635.41,484.46 635.30,484.15" speed="5.56"/>
   </edge>
   <edge function="internal" id=":1270232326_0">
      <lane disallow="tram rail_urban rail rail_electric ship" id=":1270232326_0_0" index="0" length="0.21" shape="774.57,262.02 774.60,262.23" speed="13.89"/>
   </edge>
   <edge function="internal" id=":1270232369_0">
      <lane disallow="tram rail_urban rail rail_electric ship" id=":1270232369_0_0" index="0" length="4.82" shape="778.64,302.76 779.91,303.54 780.35,304.35 779.97,305.19 778.77,306.06" speed="8.33"/>
   </edge>
   <edge function="internal" id=":1279187740_0">
      <lane allow="delivery bicycle pedestrian" id=":1279187740_0_0" index="0" length="4.82" shape="624.02,458.16 622.63,457.63 622.05,456.92 622.27,456.02 623.29,454.94" speed="5.56"/>
   </edge>
   <edge function="internal" id=":1279187745_0">
      <lane allow="delivery bicycle pedestrian" id=":1279187745_0_0" index="0" length="5.01" shape="629.40,460.13 628.92,458.84 628.15,458.02 627.07,457.66 625.70,457.78" speed="5.56"/>
   </edge>
   <edge function="internal" id=":1279187745_1">
      <lane allow="delivery bicycle pedestrian" id=":1279187745_1_0" index="0" length="9.46" shape="629.40,460.13 627.52,450.86" speed="5.56"/>
   </edge>
   <edge function="internal" id=":1279187745_2">
      <lane allow="delivery bicycle pedestrian" id=":1279187745_2_0" index="0" length="5.08" shape="624.96,454.56 626.29,454.06 627.16,453.28 627.57,452.21 627.52,450.86" speed="5.56"/>
   </edge>
   <edge function="internal" id=":1279187745_3">
      <lane allow="delivery bicycle pedestrian" id=":1279187745_3_0" index="0" length="4.82" shape="624.96,454.56 626.36,455.09 626.94,455.80 626.72,456.70 625.70,457.78" speed="5.56"/>
   </edge>
   <edge function="internal" id=":1290145660_0">
      <lane disallow="tram rail_urban rail rail_electric ship" id=":1290145660_0_0" index="0" length="0.10" shape="751.57,57.16 751.58,57.18" speed="13.89"/>
   </edge>
   <edge function="internal" id=":1290145660_1">
      <lane disallow="tram rail_urban rail rail_electric ship" id=":1290145660_1_0" index="0" length="2.41" shape="751.57,57.16 752.27,55.84 753.05,55.35" speed="13.89"/>
   </edge>
   <edge function="internal" id=":1290145660_4">
      <lane id=":1290145660_4_0" index="0" length="2.41" shape="753.05,55.35 753.91,55.67 754.86,56.82" speed="13.89"/>
   </edge>
   <edge function="internal" id=":1290145660_2">
      <lane disallow="tram rail_urban rail rail_electric ship" id=":1290145660_2_0" index="0" length="0.10" shape="754.86,56.82 754.86,56.82" speed="13.89"/>
   </edge>
   <edge function="internal" id=":1290145660_3">
      <lane disallow="tram rail_urban rail rail_electric ship" id=":1290145660_3_0" index="0" length="2.41" shape="754.86,56.82 754.17,58.14 753.40,58.64" speed="13.89"/>
   </edge>
   <edge function="internal" id=":1290145660_5">
      <lane id=":1290145660_5_0" index="0" length="2.41" shape="753.40,58.64 752.53,58.32 751.58,57.18" speed="13.89"/>
   </edge>
   <edge function="internal" id=":1290145710_0">
      <lane allow="delivery bicycle pedestrian" id=":1290145710_0_0" index="0" length="0.10" shape="669.57,89.38 669.57,89.38" speed="5.56"/>
   </edge>
   <edge function="internal" id=":1290145710_1">
      <lane allow="delivery bicycle pedestrian" id=":1290145710_1_0" index="0" length="2.41" shape="669.57,89.38 670.21,88.04 670.97,87.51" speed="5.56"/>
   </edge>
   <edge function="internal" id=":1290145710_4">
      <lane id=":1290145710_4_0" index="0" length="2.41" shape="670.97,87.51 671.85,87.80 672.84,88.91" speed="5.56"/>
   </edge>
   <edge function="internal" id=":1290145710_2">
      <lane allow="delivery bicycle pedestrian" id=":1290145710_2_0" index="0" length="0.10" shape="672.84,88.91 672.84,88.91" speed="5.56"/>
   </edge>
   <edge function="internal" id=":1290145710_3">
      <lane allow="delivery bicycle pedestrian" id=":1290145710_3_0" index="0" length="2.41" shape="672.84,88.91 672.20,90.25 671.44,90.78" speed="5.56"/>
   </edge>
   <edge function="internal" id=":1290145710_5">
      <lane id=":1290145710_5_0" index="0" length="2.41" shape="671.44,90.78 670.57,90.48 669.57,89.38" speed="5.56"/>
   </edge>
   <edge function="internal" id=":1290526646_0">
      <lane disallow="tram rail_urban rail rail_electric ship" id=":1290526646_0_0" index="0" length="3.20" shape="783.06,581.91 782.61,583.33 781.93,583.95 781.15,583.81" speed="13.89"/>
   </edge>
   <edge function="internal" id=":1290526646_3">
      <lane id=":1290526646_3_0" index="0" length="1.62" shape="781.15,583.81 781.03,583.78 779.89,582.83" speed="13.89"/>
   </edge>
   <edge function="internal" id=":1290526646_1">
      <lane disallow="tram rail_urban rail rail_electric ship" id=":1290526646_1_0" index="0" length="4.51" shape="776.59,587.25 776.72,583.74" speed="13.89"/>
      <lane disallow="tram rail_urban rail rail_electric ship" id=":1290526646_1_1" index="1" length="4.51" shape="776.59,587.25 779.89,582.83" speed="13.89"/>
   </edge>
   <edge function="internal" id=":1315942597_0">
      <lane disallow="tram rail_urban rail rail_electric ship" id=":1315942597_0_0" index="0" length="0.10" shape="688.05,424.39 688.04,424.42" speed="13.89"/>
   </edge>
   <edge function="internal" id=":1315942597_1">
      <lane disallow="tram rail_urban rail rail_electric ship" id=":1315942597_1_0" index="0" length="2.41" shape="688.05,424.39 687.16,425.59 686.31,425.96" speed="13.89"/>
   </edge>
   <edge function="internal" id=":1315942597_4">
      <lane id=":1315942597_4_0" index="0" length="2.41" shape="686.31,425.96 685.51,425.50 684.75,424.22" speed="13.89"/>
   </edge>
   <edge function="internal" id=":1315942597_2">
      <lane disallow="tram rail_urban rail rail_electric ship" id=":1315942597_2_0" index="0" length="0.17" shape="684.74,424.39 684.75,424.22" speed="13.89"/>
   </edge>
   <edge function="internal" id=":1315942597_3">
      <lane disallow="tram rail_urban rail rail_electric ship" id=":1315942597_3_0" index="0" length="2.41" shape="684.74,424.39 685.58,423.16 686.40,422.75" speed="13.89"/>
   </edge>
   <edge function="internal" id=":1315942597_5">
      <lane id=":1315942597_5_0" index="0" length="2.41" shape="686.40,422.75 687.23,423.17 688.04,424.42" speed="13.89"/>
   </edge>
   <edge function="internal" id=":1316890280_0">
      <lane disallow="tram rail_urban rail rail_electric ship" id=":1316890280_0_0" index="0" length="5.83" shape="370.01,398.89 371.06,400.35 372.20,401.26 373.41,401.61 374.70,401.41" speed="2.78"/>
   </edge>
   <edge function="internal" id=":1316890280_1">
      <lane disallow="tram rail_urban rail rail_electric ship" id=":1316890280_1_0" index="0" length="4.82" shape="370.01,398.89 369.92,400.37 369.41,401.15 368.49,401.20 367.16,400.55" speed="2.78"/>
   </edge>
   <edge function="internal" id=":1316890280_2">
      <lane disallow="tram rail_urban rail rail_electric ship" id=":1316890280_2_0" index="0" length="5.23" shape="365.66,404.67 366.96,403.97 367.64,403.06 367.71,401.92 367.16,400.55" speed="2.78"/>
   </edge>
   <edge function="internal" id=":1316890280_3">
      <lane disallow="tram rail_urban rail rail_electric ship" id=":1316890280_3_0" index="0" length="9.61" shape="365.66,404.67 374.70,401.41" speed="2.78"/>
   </edge>
   <edge function="internal" id=":1316890297_0">
      <lane disallow="tram rail_urban rail rail_electric ship" id=":1316890297_0_0" index="0" length="5.09" shape="302.89,430.64 302.50,429.28 302.66,428.16 303.36,427.27 304.61,426.60" speed="2.78"/>
   </edge>
   <edge function="internal" id=":1316890297_1">
      <lane disallow="tram rail_urban rail rail_electric ship" id=":1316890297_1_0" index="0" length="5.97" shape="298.86,428.21 304.61,426.60" speed="2.78"/>
   </edge>
   <edge function="internal" id=":1316894948_0">
      <lane disallow="tram rail_urban rail rail_electric ship" id=":1316894948_0_0" index="0" length="5.05" shape="275.58,309.96 275.22,308.62 274.51,307.73 273.46,307.31 272.07,307.34" speed="2.78"/>
   </edge>
   <edge function="internal" id=":1316894948_1">
      <lane disallow="tram rail_urban rail rail_electric ship" id=":1316894948_1_0" index="0" length="8.60" shape="275.58,309.96 276.68,301.44" speed="2.78"/>
   </edge>
   <edge function="internal" id=":1316894948_2">
      <lane disallow="tram rail_urban rail rail_electric ship" id=":1316894948_2_0" index="0" length="4.82" shape="275.58,309.96 276.25,308.63 277.02,308.12 277.89,308.43 278.86,309.56" speed="2.78"/>
   </edge>
   <edge function="internal" id=":1316894948_3">
      <lane disallow="tram rail_urban rail rail_electric ship" id=":1316894948_3_0" index="0" length="6.54" shape="279.56,303.05 278.86,309.56" speed="2.78"/>
   </edge>
   <edge function="internal" id=":1316894948_4">
      <lane disallow="tram rail_urban rail rail_electric ship" id=":1316894948_4_0" index="0" length="8.91" shape="279.56,303.05 278.38,304.58 276.74,305.80 274.64,306.72 272.07,307.34" speed="2.78"/>
   </edge>
   <edge function="internal" id=":1316894948_5">
      <lane disallow="tram rail_urban rail rail_electric ship" id=":1316894948_5_0" index="0" length="4.82" shape="279.56,303.05 278.23,303.73 277.31,303.68 276.79,302.92 276.68,301.44" speed="2.78"/>
   </edge>
   <edge function="internal" id=":1316894948_6">
      <lane disallow="tram rail_urban rail rail_electric ship" id=":1316894948_6_0" index="0" length="5.97" shape="271.53,304.08 273.37,303.67 274.84,303.09 275.94,302.34 276.68,301.44" speed="2.78"/>
   </edge>
   <edge function="internal" id=":1316894948_7">