<?xml version="1.0" encoding="utf-8"?><!-- generated on 10/11/17 17:57:39 by SUMO polyconvert Version 0.25.0
<?xml version="1.0" encoding="UTF-8"?>

<configuration xmlns:xsi="http://www.w3.org/2001/XMLSchema-instance" xsi:noNamespaceSchemaLocation="http://sumo.dlr.de/xsd/polyconvertConfiguration.xsd">

    <input>
        <net-file value="R_Altstadt_historical_800.net.xml"/>
        <osm-files value="R_Altstadt_historical_800.osm"/>
        <type-file value="osmPolyconvert.typ.xml"/>
    </input>

    <output>
        <output-file value="R_Altstadt_historical_800.poly.xml"/>
    </output>

    <projection>
        <proj.utm value="true"/>
    </projection>

    <processing>
        <poi-layer-offset value="5"/>
    </processing>

</configuration>
-->
<additional>
   <location convBoundary="-7.34,-3.61,823.90,824.16" netOffset="-287336.05,-5433130.27" origBoundary="12.091331,49.014592,12.102320,49.021790" projParameter="+proj=utm +zone=33 +ellps=WGS84 +datum=WGS84 +units=m +no_defs"/>
   <poly color="181,209,209" fill="0" id="100404079" layer="-4.00" shape="676.52,793.57 695.28,790.13 717.47,783.80 721.96,781.91 723.92,779.77 724.29,777.31 723.49,775.86 721.06,775.32 717.53,773.57 714.66,772.03 712.52,772.33 708.02,773.61 707.01,773.45 706.15,772.82 705.81,772.08 705.86,771.23 708.04,769.70 720.92,764.28 735.84,760.56 742.65,759.72 746.65,759.98 751.53,759.01 755.73,756.28 777.65,750.15 806.02,740.24 797.19,669.71 758.46,677.16 753.13,680.17 744.08,682.61 711.98,688.74 645.10,700.06 590.45,709.16 502.79,723.43 499.85,725.25 491.97,730.45 477.97,735.55 454.08,744.22 405.44,761.20 365.37,773.48 327.12,781.21 281.05,787.59 264.43,789.42 242.45,792.53 177.12,801.61 88.81,817.19 26.18,824.16" type="water"/>
   <poly color="red" fill="1" id="100418403" layer="-1.00" shape="55.24,239.58 56.05,216.58 65.40,216.25 83.46,215.21 82.81,219.45 80.98,219.67 79.26,237.79 55.24,239.58" type="building"/>
   <poly color="red" fill="1" id="100418406" layer="-1.00" shape="209.47,266.98 207.76,256.72 217.51,255.10 215.42,242.58 227.43,240.58 231.24,263.36 209.47,266.98" type="building"/>
   <poly color="red" fill="0" id="100418408" layer="-1.00" shape="29.88,256.75 43.33,256.53 88.94,252.58 90.80,245.26 91.74,241.57 96.82,220.68 96.53,195.68 60.95,199.55 60.71,205.41 51.49,205.56 45.52,205.66 45.51,214.00 45.50,220.20 37.47,220.81 37.54,226.51 43.38,226.21 43.23,240.38 16.34,241.11 16.41,245.73 7.68,246.38 7.10,227.60" type="building"/>
   <poly color="red" fill="1" id="100526102" layer="-1.00" shape="423.53,173.83 414.42,151.18 399.39,154.84 409.31,182.57 423.53,173.83" type="building"/>
   <poly color="red" fill="1" id="100526104" layer="-1.00" shape="266.95,247.83 236.89,250.80 247.97,306.43 276.69,299.38 266.95,247.83" type="building"/>
   <poly color="red" fill="1" id="100526105" layer="-1.00" shape="344.73,179.00 343.31,170.80 336.42,171.98 337.83,180.19 344.73,179.00" type="building"/>
   <poly color="128,255,128" fill="1" id="100526105#1" layer="-1.00" shape="344.73,179.00 343.31,170.80 336.42,171.98 337.83,180.19 344.73,179.00" type="historic"/>
   <poly color="red" fill="1" id="100526105#2" layer="-1.00" shape="344.73,179.00 343.31,170.80 336.42,171.98 337.83,180.19 344.73,179.00" type="building"/>
   <poly color="red" fill="1" id="100526109" layer="-1.00" shape="465.11,271.12 475.02,270.02 472.91,251.15 463.00,252.26 465.11,271.12" type="building"/>
   <poly color="red" fill="1" id="100526110" layer="-1.00" shape="234.37,108.45 241.30,112.82 252.55,100.84 248.16,96.26 234.37,108.45" type="building"/>
   <poly color="red" fill="1" id="100526112" layer="-1.00" shape="344.10,280.87 351.14,297.08 359.31,294.14 349.21,268.31 359.45,264.28 356.75,254.49 363.61,252.48 376.75,285.23 392.10,309.33 376.91,313.71 365.64,316.96 361.29,304.89 340.86,310.80 331.22,285.15 344.10,280.87" type="building"/>
   <poly color="red" fill="1" id="100526113" layer="-1.00" shape="347.67,331.18 354.83,349.91 409.04,348.38 392.10,309.33 376.91,313.71 387.57,334.56 379.29,336.60 373.91,324.67 363.84,327.40 366.71,335.42 361.13,337.70 357.27,327.87 347.67,331.18" type="building"/>
   <poly color="red" fill="1" id="100526119" layer="-1.00" shape="380.42,212.66 385.12,209.00 381.74,200.99 370.72,204.02 369.57,199.22 358.73,201.78 362.34,216.95 380.42,212.66" type="building"/>
   <poly color="red" fill="1" id="100526122" layer="-1.00" shape="497.46,254.53 495.55,252.82 483.48,254.13 480.91,256.97 480.72,276.58 478.08,288.30 484.61,289.48 487.15,289.92 487.47,287.28 487.98,282.70 497.17,282.74 497.46,254.53" type="building"/>
   <poly color="red" fill="1" id="100526125" layer="-1.00" shape="407.93,283.09 412.22,280.75 420.46,291.02 399.77,304.07 391.43,292.72 407.93,283.09" type="building"/>
   <poly color="red" fill="1" id="100526129" layer="-1.00" shape="255.45,100.74 240.69,119.12 231.60,137.00 225.05,168.72 237.00,167.25 244.18,140.38 246.99,132.45 250.37,125.87 256.05,117.55 264.20,107.62 255.45,100.74" type="building"/>
   <poly color="red" fill="1" id="100526131" layer="-1.00" shape="369.85,155.29 368.60,147.96 359.42,149.52 360.67,156.85 369.85,155.29" type="building"/>
   <poly color="237,199,199" fill="1" id="100526142" layer="-1.00" shape="425.39,81.33 429.37,128.82 431.85,128.66 444.01,127.86 462.72,123.98 460.96,113.79 444.52,116.64 442.86,93.45 444.65,81.84 425.39,81.33" type="amenity"/>
   <poly color="red" fill="1" id="100526142#1" layer="-1.00" shape="425.39,81.33 429.37,128.82 431.85,128.66 444.01,127.86 462.72,123.98 460.96,113.79 444.52,116.64 442.86,93.45 444.65,81.84 425.39,81.33" type="building"/>
   <poly color="red" fill="1" id="100526145" layer="-1.00" shape="363.61,252.48 356.96,233.22 320.14,246.13 323.91,266.18 336.10,261.34 334.45,256.58 340.48,254.44 342.11,259.49 350.81,256.87 349.24,251.30 354.83,249.15 356.75,254.49 363.61,252.48" type="building"/>
   <poly color="128,255,128" fill="1" id="100526145#1" layer="-1.00" shape="363.61,252.48 356.96,233.22 320.14,246.13 323.91,266.18 336.10,261.34 334.45,256.58 340.48,254.44 342.11,259.49 350.81,256.87 349.24,251.30 354.83,249.15 356.75,254.49 363.61,252.48" type="historic"/>
   <poly color="237,199,199" fill="1" id="100526147" layer="-1.00" shape="162.63,188.92 194.75,185.51 193.28,171.69 161.16,175.08 162.63,188.92" type="amenity"/>
   <poly color="red" fill="1" id="100526147#1" layer="-1.00" shape="162.63,188.92 194.75,185.51 193.28,171.69 161.16,175.08 162.63,188.92" type="building"/>
   <poly color="128,255,128" fill="1" id="100526147#2" layer="-1.00" shape="162.63,188.92 194.75,185.51 193.28,171.69 161.16,175.08 162.63,188.92" type="historic"/>
   <poly color="red" fill="1" id="100526152" layer="-1.00" shape="281.96,169.52 296.82,167.03 305.53,205.68 339.95,197.77 336.63,186.38 319.56,190.75 313.68,164.09 333.51,160.35 332.43,154.57 319.51,156.84 317.24,140.94 310.26,142.04 313.07,158.49 310.28,157.61 306.87,158.12 305.24,147.91 279.09,151.53 281.96,169.52" type="building"/>
   <poly color="red" fill="1" id="100526155" layer="-1.00" shape="210.13,150.21 212.13,142.02 225.25,145.19 223.26,153.38 210.13,150.21" type="building"/>
   <poly color="red" fill="1" id="100526159" layer="-1.00" shape="453.79,238.32 455.43,239.34 457.58,239.80 460.25,239.66 462.40,239.04 469.76,240.20 481.81,238.38 496.66,235.56 482.10,160.86 439.26,186.95 418.64,202.57 428.93,227.71 443.56,223.89 445.90,223.41 448.35,231.63 449.51,233.84 450.86,236.00 452.45,237.62 453.79,238.32" type="building"/>
   <poly color="red" fill="1" id="100528734" layer="-1.00" shape="135.33,275.68 134.96,263.04 110.78,266.13 114.81,278.60 135.33,275.68" type="building"/>
   <poly color="red" fill="1" id="100528742" layer="-1.00" shape="93.82,257.47 98.18,257.09 100.78,256.88 100.33,250.78 150.64,245.03 151.48,250.71 155.47,250.19 156.67,260.99 155.23,272.05 146.73,287.22 145.44,319.50 135.11,322.16 132.54,313.73 130.95,308.51 130.43,304.57 128.84,304.61 128.27,296.10 108.99,303.18 99.74,284.64 96.17,272.73 93.82,257.47" type="building"/>
   <poly color="red" fill="1" id="100540992" layer="-1.00" shape="677.78,98.66 678.72,105.98 692.48,103.84 692.06,101.14 697.83,100.13 696.98,96.52 677.78,98.66" type="building"/>
   <poly color="red" fill="1" id="100540995" layer="-1.00" shape="531.49,152.84 489.28,158.37 503.55,243.98 523.17,243.23 562.68,229.97 557.22,216.76 533.18,224.93 531.66,223.41 524.47,225.55 525.45,230.70 520.01,232.09 513.87,194.78 512.22,187.55 521.89,188.94 522.17,178.06 544.74,175.34 545.80,177.40 549.68,176.18 546.50,169.89 543.48,166.13 533.53,165.30 532.34,158.81 531.49,152.84" type="building"/>
   <poly color="red" fill="1" id="100540996" layer="-1.00" shape="668.18,52.68 667.35,47.46 666.92,44.73 663.42,22.71 640.64,26.30 645.37,56.07 645.86,55.99 647.38,65.61 660.86,63.46 660.20,59.28 660.08,58.53 658.62,58.76 658.27,56.57 657.91,54.31 668.18,52.68" type="building"/>
   <poly color="red" fill="1" id="100540997" layer="-1.00" shape="601.50,218.31 653.76,208.47 652.56,200.81 650.10,185.08 647.38,167.73 640.80,125.66 639.39,116.66 638.16,108.82 587.66,123.29 557.64,139.32 560.32,147.83 579.05,165.12 594.12,189.61 601.50,218.31" type="building"/>
   <poly color="red" fill="1" id="100540998" layer="-1.00" shape="659.02,152.44 683.67,148.30 680.39,132.62 677.89,130.91 676.17,131.22 673.83,118.62 668.65,119.14 665.06,119.56 664.50,117.47 653.90,119.41 656.64,137.10 659.02,152.44" type="building"/>
   <poly color="red" fill="1" id="100540999" layer="-1.00" shape="610.93,202.14 606.26,178.19 632.24,172.22 633.80,182.42 620.07,185.63 622.32,199.96 610.93,202.14" type="building"/>
   <poly color="red" fill="1" id="100541000" layer="-1.00" shape="486.49,116.75 500.32,113.81 498.24,104.81 508.44,102.09 504.59,88.51 491.27,90.88 488.30,92.91 480.84,94.12 486.49,116.75" type="building"/>
   <poly color="red" fill="1" id="100541001" layer="-1.00" shape="576.76,69.93 575.16,57.61 632.03,50.26 633.62,62.58 576.76,69.93" type="building"/>
   <poly color="207,245,201" fill="1" id="100541001#1" layer="-2.00" shape="576.76,69.93 575.16,57.61 632.03,50.26 633.62,62.58 576.76,69.93" type="tourism"/>
   <poly color="red" fill="1" id="100541002" layer="-1.00" shape="537.54,78.81 486.34,88.11 486.62,90.43 479.14,91.40 477.34,75.03 509.16,72.37 508.47,64.44 534.33,60.19 537.54,78.81" type="building"/>
   <poly color="red" fill="1" id="100541005" layer="-1.00" shape="579.68,180.18 572.01,168.23 560.85,171.96 549.68,176.18 555.64,189.47 579.68,180.18" type="building"/>
   <poly color="red" fill="1" id="100541006" layer="-1.00" shape="543.28,215.83 542.33,190.80 526.68,191.40 527.67,217.21 543.28,215.83" type="building"/>
   <poly color="red" fill="1" id="100541010" layer="-1.00" shape="562.68,229.97 592.53,219.42 580.61,187.55 556.65,197.70 563.79,213.98 557.22,216.76 562.68,229.97" type="building"/>
   <poly color="red" fill="1" id="100541011" layer="-1.00" shape="703.12,204.00 759.01,196.10 758.02,182.70 757.04,169.40 732.90,168.45 732.84,170.03 732.52,177.53 739.83,177.80 740.40,184.14 733.58,185.09 720.80,186.87 715.06,187.67 714.22,181.62 710.70,182.13 711.55,188.17 701.19,189.53 703.12,204.00" type="building"/>
   <poly color="red" fill="1" id="100541014" layer="-1.00" shape="581.89,101.59 585.78,113.97 598.05,109.54 607.23,107.07 637.97,100.10 632.95,68.94 580.27,77.66 581.34,86.64 589.93,85.22 591.42,98.01 581.89,101.59" type="building"/>
   <poly color="red" fill="1" id="100541019" layer="-1.00" shape="556.31,75.14 553.07,57.75 575.16,57.61 576.76,69.93 556.31,75.14" type="building"/>
   <poly color="red" fill="1" id="100541022" layer="-1.00" shape="527.53,121.27 523.21,106.52 510.77,110.16 515.10,124.89 527.53,121.27" type="building"/>
   <poly color="red" fill="1" id="100541024" layer="-1.00" shape="650.07,94.09 669.78,91.07 669.31,88.00 665.42,62.73 660.86,63.46 647.38,65.61 645.72,65.76 650.07,94.09" type="building"/>
   <poly color="red" fill="1" id="100597871" layer="-1.00" shape="140.02,674.06 140.92,684.94 153.71,684.42 166.69,683.88 166.09,672.79 181.50,671.61 178.69,612.04 172.07,612.06 136.33,612.16 128.30,674.67 140.02,674.06" type="building"/>
   <poly color="128,255,128" fill="1" id="100597871#1" layer="-1.00" shape="140.02,674.06 140.92,684.94 153.71,684.42 166.69,683.88 166.09,672.79 181.50,671.61 178.69,612.04 172.07,612.06 136.33,612.16 128.30,674.67 140.02,674.06" type="historic"/>
   <poly color="red" fill="1" id="100597875" layer="-1.00" shape="41.41,480.33 34.18,480.99 35.67,494.05 42.92,493.60 41.41,480.33" type="building"/>
   <poly color="red" fill="1" id="100597876" layer="-1.00" shape="140.44,661.88 161.26,660.44 160.83,654.32 164.74,654.05 163.56,637.04 151.13,637.91 150.72,632.10 142.43,632.68 140.44,661.88" type="building"/>
   <poly color="128,255,128" fill="1" id="100597876#1" layer="-1.00" shape="140.44,661.88 161.26,660.44 160.83,654.32 164.74,654.05 163.56,637.04 151.13,637.91 150.72,632.10 142.43,632.68 140.44,661.88" type="historic"/>
   <poly color="red" fill="1" id="100598948" layer="-1.00" shape="90.88,644.72 82.90,645.48 82.41,659.47 76.58,659.81 76.89,664.41 79.27,664.01 90.69,663.47 90.61,651.74 90.88,644.72" type="building"/>
   <poly color="237,199,199" fill="1" id="100598949" layer="-1.00" shape="133.58,787.69 130.65,779.25 104.99,788.71 107.21,797.57 133.58,787.69" type="amenity"/>
   <poly color="red" fill="1" id="100598949#1" layer="-1.00" shape="133.58,787.69 130.65,779.25 104.99,788.71 107.21,797.57 133.58,787.69" type="building"/>
   <poly color="red" fill="1" id="100598951" layer="-1.00" shape="114.83,645.28 127.42,645.85 131.87,609.46 122.11,607.11 115.57,630.83 114.83,645.28" type="building"/>
   <poly color="red" fill="1" id="100598952" layer="-1.00" shape="59.05,691.42 57.55,679.14 73.60,677.72 76.27,689.90 59.05,691.42" type="building"/>
   <poly color="red" fill="1" id="100598957" layer="-1.00" shape="225.98,675.38 225.57,666.41 222.59,666.66 209.75,667.83 210.47,684.54 217.14,683.91 217.09,681.22 216.98,676.22 225.98,675.38" type="building"/>
   <poly color="red" fill="1" id="100598962" layer="-1.00" shape="195.61,675.75 195.45,672.08 205.68,671.34 205.56,668.20 205.25,659.77 194.87,660.02 194.80,656.07 183.89,656.22 185.26,676.38 195.61,675.75" type="building"/>
   <poly color="red" fill="1" id="100598964" layer="-1.00" shape="108.11,666.97 108.84,651.48 110.52,652.12 126.10,655.41 125.51,668.70 108.11,666.97" type="building"/>
   <poly color="red" fill="1" id="100598965" layer="-1.00" shape="49.92,617.02 59.00,616.67 58.08,610.20 57.59,606.80 48.71,607.14 49.92,617.02" type="building"/>
   <poly color="red" fill="1" id="100598966" layer="-1.00" shape="208.72,639.55 199.93,639.74 199.51,632.46 192.14,633.02 191.80,628.87 182.65,629.42 182.20,612.33 211.65,616.64 208.72,639.55" type="building"/>
   <poly color="red" fill="1" id="100598967" layer="-1.00" shape="146.86,782.61 154.41,779.64 162.25,778.76 183.89,779.69 182.73,772.04 181.77,764.83 144.78,770.80 146.86,782.61" type="building"/>
   <poly color="red" fill="1" id="100598972" layer="-1.00" shape="126.10,655.41 127.42,645.85 114.83,645.28 110.86,645.10 110.52,652.12 126.10,655.41" type="building"/>
   <poly color="red" fill="1" id="100598981" layer="-1.00" shape="76.89,664.41 76.58,659.81 73.27,659.93 71.99,648.86 53.92,649.59 56.21,668.22 76.89,664.41" type="building"/>
   <poly color="red" fill="1" id="100598982" layer="-1.00" shape="67.33,648.78 66.74,634.70 64.17,634.92 63.45,628.55 51.46,629.55 53.92,649.59 67.33,648.78" type="building"/>
   <poly color="red" fill="1" id="100598985" layer="-1.00" shape="255.10,684.61 251.52,661.79 238.82,663.51 240.50,675.85 249.93,674.57 251.36,685.12 255.10,684.61" type="building"/>
   <poly color="red" fill="1" id="100598989" layer="-1.00" shape="183.89,779.69 193.05,780.02 193.05,781.77 200.15,782.09 200.28,780.16 207.60,780.28 208.32,773.93 204.50,773.70 205.79,763.72 191.21,763.14 191.09,772.44 182.73,772.04 183.89,779.69" type="building"/>
   <poly color="red" fill="1" id="100598993" layer="-1.00" shape="290.33,721.71 315.35,720.28 309.85,699.10 293.23,699.92 290.63,707.20 290.33,721.71" type="building"/>
   <poly color="red" fill="1" id="100598994" layer="-1.00" shape="107.42,798.30 107.21,797.57 104.99,788.71 103.63,783.26 70.14,792.09 68.82,792.90 67.84,794.14 67.35,795.70 67.42,797.31 67.97,798.71 68.98,799.84 70.15,800.56 71.24,800.92 72.28,800.92 92.13,797.33 92.45,799.24 94.99,798.63 95.66,801.67 107.42,798.30" type="building"/>
   <poly color="red" fill="1" id="100600528" layer="-1.00" shape="614.31,463.47 611.02,445.47 601.97,446.56 604.15,458.15 604.29,460.33 601.57,460.89 602.08,465.29 583.17,467.22 579.41,467.61 575.93,467.97 576.76,476.20 580.09,475.86 610.48,472.76 615.07,490.05 615.93,493.30 619.01,492.50 623.30,491.37 626.82,490.43 625.90,486.95 623.41,477.44 628.09,476.45 625.28,465.32 624.42,465.55 623.49,461.90 620.45,462.73 620.29,462.06 614.31,463.47" type="building"/>
   <poly color="128,255,128" fill="1" id="100600528#1" layer="-1.00" shape="614.31,463.47 611.02,445.47 601.97,446.56 604.15,458.15 604.29,460.33 601.57,460.89 602.08,465.29 583.17,467.22 579.41,467.61 575.93,467.97 576.76,476.20 580.09,475.86 610.48,472.76 615.07,490.05 615.93,493.30 619.01,492.50 623.30,491.37 626.82,490.43 625.90,486.95 623.41,477.44 628.09,476.45 625.28,465.32 624.42,465.55 623.49,461.90 620.45,462.73 620.29,462.06 614.31,463.47" type="historic"/>
   <poly color="237,199,199" fill="1" id="100600529" layer="-1.00" shape="561.32,391.07 565.25,432.07 565.03,433.36 565.11,434.23 565.52,435.04 566.26,435.65 567.22,435.93 567.45,436.16 577.62,444.53 584.57,436.27 577.01,429.93 575.99,427.79 575.69,424.87 577.95,424.64 574.51,389.74 572.01,389.99 561.32,391.07" type="amenity"/>
   <poly color="red" fill="1" id="100600529#1" layer="-1.00" shape="561.32,391.07 565.25,432.07 565.03,433.36 565.11,434.23 565.52,435.04 566.26,435.65 567.22,435.93 567.45,436.16 577.62,444.53 584.57,436.27 577.01,429.93 575.99,427.79 575.69,424.87 577.95,424.64 574.51,389.74 572.01,389.99 561.32,391.07" type="building"/>
   <poly color="237,199,199" fill="1" id="100600536" layer="-1.00" shape="531.87,453.50 532.30,458.07 530.37,458.27 528.93,459.98 529.66,466.84 530.18,471.80 512.16,473.63 511.65,468.67 497.35,470.20 499.92,495.50 514.16,494.00 513.83,491.10 514.59,491.03 514.38,488.95 537.59,486.55 563.14,483.92 563.79,490.55 564.04,493.18 569.47,492.60 573.49,492.18 573.20,489.58 573.02,487.95 577.89,487.45 576.76,476.20 575.93,467.97 574.99,459.09 574.71,459.11 560.67,460.59 561.48,468.70 543.40,470.48 541.62,452.48 540.54,452.66 532.18,453.47 531.87,453.50" type="amenity"/>
   <poly color="red" fill="1" id="100600536#1" layer="-1.00" shape="531.87,453.50 532.30,458.07 530.37,458.27 528.93,459.98 529.66,466.84 530.18,471.80 512.16,473.63 511.65,468.67 497.35,470.20 499.92,495.50 514.16,494.00 513.83,491.10 514.59,491.03 514.38,488.95 537.59,486.55 563.14,483.92 563.79,490.55 564.04,493.18 569.47,492.60 573.49,492.18 573.20,489.58 573.02,487.95 577.89,487.45 576.76,476.20 575.93,467.97 574.99,459.09 574.71,459.11 560.67,460.59 561.48,468.70 543.40,470.48 541.62,452.48 540.54,452.66 532.18,453.47 531.87,453.50" type="building"/>
   <poly color="red" fill="1" id="100600537" layer="-1.00" shape="545.78,404.26 554.87,403.41 552.67,378.14 540.71,378.13 541.18,397.94 540.79,405.07 545.78,404.26" type="building"/>
   <poly color="red" fill="1" id="100600557" layer="-1.00" shape="603.47,408.98 603.49,379.34 586.44,376.37 586.19,381.40 590.03,381.58 590.12,402.79 581.37,403.38 581.89,408.46 602.30,409.12 603.47,408.98" type="building"/>
   <poly color="237,199,255" fill="1" id="100600557#1" layer="-1.00" shape="603.47,408.98 603.49,379.34 586.44,376.37 586.19,381.40 590.03,381.58 590.12,402.79 581.37,403.38 581.89,408.46 602.30,409.12 603.47,408.98" type="shop"/>
   <poly color="237,199,199" fill="1" id="100601364" layer="-1.00" shape="594.81,331.39 594.42,321.22 610.89,320.59 611.72,330.67 594.81,331.39" type="amenity"/>
   <poly color="red" fill="1" id="100601364#1" layer="-1.00" shape="594.81,331.39 594.42,321.22 610.89,320.59 611.72,330.67 594.81,331.39" type="building"/>
   <poly color="red" fill="1" id="100601365" layer="-1.00" shape="560.35,297.00 544.03,258.37 576.39,247.84 581.52,264.08 602.36,260.41 600.46,253.08 597.80,243.54 593.96,231.08 526.69,250.01 547.64,300.92 560.35,297.00" type="building"/>
   <poly color="red" fill="1" id="100601367" layer="-1.00" shape="672.86,244.19 698.18,240.37 696.19,227.47 671.00,231.16 672.86,244.19" type="building"/>
   <poly color="red" fill="1" id="100601368" layer="-1.00" shape="640.84,261.49 638.21,244.09 628.51,245.96 631.37,262.92 640.84,261.49" type="building"/>
   <poly color="207,245,201" fill="1" id="100601368#1" layer="-2.00" shape="640.84,261.49 638.21,244.09 628.51,245.96 631.37,262.92 640.84,261.49" type="leisure"/>
   <poly color="red" fill="1" id="100601369" layer="-1.00" shape="564.73,367.75 608.71,365.68 620.39,357.72 617.33,335.90 583.35,338.31 579.35,304.65 548.35,305.37 560.25,367.77 564.73,367.75" type="building"/>
   <poly color="red" fill="1" id="100601372" layer="-1.00" shape="675.02,352.64 671.84,331.81 658.29,334.88 658.70,338.35 645.43,340.42 639.58,310.88 622.82,312.26 627.81,357.63 675.02,352.64" type="building"/>
   <poly color="red" fill="1" id="100601375" layer="-1.00" shape="609.96,296.75 604.36,274.40 586.06,276.71 585.49,268.25 564.97,269.88 565.47,283.17 575.49,282.38 578.21,297.36 609.96,296.75" type="building"/>
   <poly color="red" fill="1" id="100601376" layer="-1.00" shape="519.10,334.89 516.60,350.01 504.70,349.04 504.60,350.64 494.56,350.39 494.56,349.25 485.48,348.88 483.78,368.90 484.10,369.52 493.27,370.23 515.29,370.78 530.14,370.30 541.31,370.22 556.45,369.22 553.96,354.33 551.66,346.81 548.87,342.78 542.96,344.51 542.56,339.78 541.29,339.88 541.16,338.17 543.52,338.00 541.84,317.29 539.41,317.51 537.55,294.29 533.63,285.67 535.79,284.90 527.17,263.20 522.42,252.06 505.38,255.90 505.31,268.56 502.88,290.29 501.30,300.20 500.66,308.02 499.78,317.12 496.39,316.87 495.34,325.23 493.38,325.09 491.48,332.91 519.10,334.89" type="building"/>
   <poly color="red" fill="1" id="100601377" layer="-1.00" shape="671.84,331.81 654.66,219.81 605.92,227.14 605.68,238.99 615.67,281.89 622.82,312.26 639.58,310.88 633.23,275.54 644.42,273.11 655.70,335.37 658.29,334.88 671.84,331.81" type="building"/>
   <poly color="red" fill="1" id="100602764" layer="-1.00" shape="753.81,635.39 739.12,638.63 735.97,639.47 738.23,648.28 755.81,643.95 753.81,635.39" type="building"/>
   <poly color="red" fill="1" id="100602765" layer="-1.00" shape="581.72,674.08 603.33,673.66 611.25,672.98 610.85,660.74 605.16,660.86 602.26,660.84 602.29,661.43 600.23,661.49 600.50,667.27 596.07,667.36 595.97,661.75 595.91,658.67 583.30,658.93 583.29,659.50 581.94,659.55 581.72,674.08" type="building"/>
   <poly color="red" fill="1" id="100602770" layer="-1.00" shape="636.04,600.40 632.21,600.97 632.94,605.02 626.56,606.14 627.58,615.16 637.99,613.28 636.04,600.40" type="building"/>
   <poly color="red" fill="1" id="100602775" layer="-1.00" shape="659.61,622.59 645.66,624.76 646.73,629.22 648.03,643.32 648.61,643.26 657.83,642.53 660.66,642.30 661.47,642.23 660.53,629.08 659.61,622.59" type="building"/>
   <poly color="red" fill="1" id="100602779" layer="-1.00" shape="765.50,560.17 766.73,565.73 775.20,563.85 788.69,560.88 793.70,559.77 792.98,556.51 806.95,553.44 802.70,534.24 797.56,501.95 788.59,503.06 784.84,503.30 781.25,503.75 782.64,512.26 785.25,511.85 789.48,537.16 771.80,541.22 764.18,542.74 761.75,543.28 762.51,546.69 753.72,547.75 757.08,561.73 765.50,560.17" type="building"/>
   <poly color="red" fill="1" id="100602780" layer="-1.00" shape="627.67,513.72 626.73,507.01 625.76,500.09 624.60,500.25 620.16,500.86 617.09,501.29 612.27,501.96 612.54,503.88 614.04,515.48 627.67,513.72" type="building"/>
   <poly color="128,255,128" fill="1" id="100602780#1" layer="-1.00" shape="627.67,513.72 626.73,507.01 625.76,500.09 624.60,500.25 620.16,500.86 617.09,501.29 612.27,501.96 612.54,503.88 614.04,515.48 627.67,513.72" type="historic"/>
   <poly color="red" fill="1" id="100602780#2" layer="-1.00" shape="627.67,513.72 626.73,507.01 625.76,500.09 624.60,500.25 620.16,500.86 617.09,501.29 612.27,501.96 612.54,503.88 614.04,515.48 627.67,513.72" type="building"/>
   <poly color="red" fill="1" id="100602783" layer="-1.00" shape="635.74,588.03 644.52,586.60 651.12,585.53 646.80,559.07 638.51,560.41 638.99,563.36 636.91,563.71 638.12,571.17 633.12,571.98 635.74,588.03" type="building"/>
   <poly color="red" fill="1" id="100602786" layer="-1.00" shape="582.53,637.76 576.70,638.64 576.57,636.62 573.94,636.75 574.84,654.64 578.82,654.53 583.34,654.30 583.23,647.41 582.53,637.76" type="building"/>
   <poly color="red" fill="1" id="100602788" layer="-1.00" shape="650.57,664.42 662.27,662.84 660.95,647.65 648.43,648.69 650.57,664.42" type="building"/>
   <poly color="red" fill="0" id="100768206" layer="-1.00" shape="795.32,794.55 763.32,794.47" type="building"/>
   <poly color="red" fill="1" id="100952129" layer="-1.00" shape="775.58,15.38 773.82,-1.00 755.67,0.94 757.44,17.32 775.58,15.38" type="building"/>
   <poly color="red" fill="0" id="100952142" layer="-1.00" shape="788.47,-3.61 789.78,8.43" type="building"/>
   <poly color="237,199,199" fill="0" id="100952152" layer="-1.00" shape="789.69,33.23 787.49,20.37 770.37,23.27 775.02,50.54 796.29,46.93 796.77,49.72" type="amenity"/>
   <poly color="red" fill="0" id="100952152#1" layer="-1.00" shape="789.69,33.23 787.49,20.37 770.37,23.27 775.02,50.54 796.29,46.93 796.77,49.72" type="building"/>
   <poly color="red" fill="1" id="101215480" layer="-1.00" shape="102.66,669.38 123.86,670.34 123.12,689.98 115.06,690.23 114.93,687.03 108.39,687.31 108.48,690.43 102.69,690.60 88.32,691.05 87.03,679.77 93.62,679.61 94.78,686.24 99.19,685.82 98.73,679.60 103.46,679.13 103.01,674.93 102.66,669.38" type="building"/>
   <poly color="red" fill="1" id="101374518" layer="-1.00" shape="90.69,663.47 97.24,662.89 96.88,654.95 99.05,651.01 90.61,651.74 90.69,663.47" type="building"/>
   <poly color="red" fill="1" id="101964011" layer="-1.00" shape="69.63,615.49 59.00,616.67 49.92,617.02 51.46,629.55 63.45,628.55 71.08,628.19 69.63,615.49" type="building"/>
   <poly color="red" fill="1" id="101964014" layer="-1.00" shape="68.84,596.14 69.26,606.40 69.38,609.44 58.08,610.20 57.59,606.80 48.71,607.14 47.46,596.96 68.84,596.14" type="building"/>
   <poly color="red" fill="1" id="101964021" layer="-1.00" shape="76.15,596.00 68.84,596.14 69.26,606.40 76.39,606.20 76.15,596.00" type="building"/>
   <poly color="red" fill="1" id="101964029" layer="-1.00" shape="57.55,679.14 56.61,671.51 75.23,668.12 76.15,677.48 73.60,677.72 57.55,679.14" type="building"/>
   <poly color="red" fill="1" id="101964035" layer="-1.00" shape="122.11,607.11 92.87,600.04 76.15,596.00 76.39,606.20 69.26,606.40 69.63,615.49 71.08,628.19 63.45,628.55 64.17,634.92 66.74,634.70 68.68,634.63 68.18,631.81 76.96,631.08 78.02,645.49 82.90,645.48 90.88,644.72 90.61,651.74 99.05,651.01 101.13,650.92 101.48,644.67 110.86,645.10 114.83,645.28 115.57,630.83 122.11,607.11" type="building"/>
   <poly color="red" fill="1" id="101964038" layer="-1.00" shape="107.94,630.57 95.60,627.78 76.79,626.70 75.66,614.23 96.01,620.35 108.82,626.14 107.94,630.57" type="building"/>
   <poly color="red" fill="1" id="105496488" layer="-1.00" shape="20.35,772.92 25.33,765.07 24.59,761.71 29.66,760.60 27.59,751.16 21.57,752.47 20.35,772.92" type="building"/>
   <poly color="red" fill="0" id="105496489" layer="-1.00" shape="20.61,727.61 21.69,740.38" type="building"/>
   <poly color="red" fill="1" id="105496491" layer="-1.00" shape="46.66,724.68 49.20,735.29 36.29,738.51 35.52,728.82 46.66,724.68" type="building"/>
   <poly color="red" fill="0" id="105496492" layer="-1.00" shape="21.69,740.38 25.30,739.58 26.59,745.50 20.35,746.86" type="building"/>
   <poly color="red" fill="0" id="105496493" layer="-1.00" shape="27.09,701.96 29.79,712.72 26.54,713.60 29.45,724.11 20.61,727.61 18.14,721.30" type="building"/>
   <poly color="red" fill="1" id="105496494" layer="-1.00" shape="54.53,757.53 48.14,758.63 44.61,759.24 40.88,744.93 50.86,742.22 54.53,757.53" type="building"/>
   <poly color="red" fill="0" id="105496495" layer="-1.00" shape="20.35,772.92 26.94,771.49 28.29,777.66 30.76,788.98" type="building"/>
   <poly color="red" fill="1" id="105496496" layer="-1.00" shape="40.85,787.10 38.44,775.37 37.25,769.60 44.96,768.47 45.73,770.79 51.07,769.41 48.14,758.63 54.53,757.53 60.51,782.50 40.85,787.10" type="building"/>
   <poly color="red" fill="1" id="105496497" layer="-1.00" shape="29.79,712.72 27.09,701.96 44.97,697.81 46.42,709.83 29.79,712.72" type="building"/>
   <poly color="red" fill="1" id="105496498" layer="-1.00" shape="30.76,788.98 28.29,777.66 38.44,775.37 40.85,787.10 30.76,788.98" type="building"/>
   <poly color="red" fill="1" id="105496499" layer="-1.00" shape="46.66,724.68 45.56,712.36 40.17,713.84 40.79,716.67 35.59,717.55 35.52,728.82 46.66,724.68" type="building"/>
   <poly color="red" fill="1" id="105496500" layer="-1.00" shape="49.20,735.29 36.29,738.51 29.72,740.14 30.85,747.65 40.88,744.93 50.86,742.22 49.20,735.29" type="building"/>
   <poly color="red" fill="1" id="105496501" layer="-1.00" shape="21.57,752.47 20.35,746.86 21.57,752.47" type="building"/>
   <poly color="red" fill="1" id="105584263" layer="-1.00" shape="784.80,220.77 796.59,219.60 795.22,206.08 796.27,206.00 797.34,205.04 797.12,203.22 800.33,202.82 799.14,191.92 790.50,193.29 791.08,198.30 784.53,199.01 784.62,199.86 782.91,200.04 784.80,220.77" type="building"/>
   <poly color="red" fill="1" id="105614318" layer="-1.00" shape="26.97,698.96 33.55,697.47 32.48,694.09 38.63,692.73 39.66,696.09 53.62,692.94 52.68,685.16 30.22,689.31 25.54,690.15 26.97,698.96" type="building"/>