<?xml version="1.0" encoding="utf-8"?><!-- generated on 10/11/17 17:57:48 by SUMO polyconvert Version 0.25.0
<?xml version="1.0" encoding="UTF-8"?>

<configuration xmlns:xsi="http://www.w3.org/2001/XMLSchema-instance" xsi:noNamespaceSchemaLocation="http://sumo.dlr.de/xsd/polyconvertConfiguration.xsd">

    <input>
        <net-file value="R_BusinessP_industrial_800.net.xml"/>
        <osm-files value="R_BusinessP_industrial_800.osm"/>
        <type-file value="osmPolyconvert.typ.xml"/>
    </input>

    <output>
        <output-file value="R_BusinessP_industrial_800.poly.xml"/>
    </output>

    <projection>
        <proj.utm value="true"/>
    </projection>

    <processing>
        <poi-layer-offset value="5"/>
    </processing>

</configuration>
-->
<additional>
   <location convBoundary="-7.47,0.00,811.46,822.58" netOffset="-290790.18,-5431927.01" origBoundary="12.139102,49.004962,12.150049,49.012144" projParameter="+proj=utm +zone=33 +ellps=WGS84 +datum=WGS84 +units=m +no_defs"/>
   <poly color="red" fill="0" id="110678450" layer="-1.00" shape="19.43,822.58 40.77,815.46" type="building"/>
   <poly color="red" fill="0" id="110678512" layer="-1.00" shape="107.80,813.33 101.59,815.46 101.20,814.32" type="building"/>
   <poly color="red" fill="1" id="110678516" layer="-1.00" shape="19.19,551.86 32.70,546.08 18.58,513.28 10.91,532.65 19.19,551.86" type="building"/>
   <poly color="red" fill="1" id="110678521" layer="-1.00" shape="24.90,777.18 19.79,765.39 29.63,761.15 19.11,779.67 24.90,777.18" type="building"/>
   <poly color="209,209,204" fill="0" id="111184692" layer="-3.00" shape="24.70,489.27 13.72,496.26 45.99,544.49 74.63,593.15 123.70,701.17 151.16,773.18" type="industrial"/>
   <poly color="red" fill="0" id="111184693" layer="-1.00" shape="158.11,803.57 145.02,808.20" type="building"/>
   <poly color="red" fill="1" id="111184694" layer="-1.00" shape="109.48,795.60 123.50,790.89 109.48,795.60" type="building"/>
   <poly color="237,199,255" fill="1" id="111184694#1" layer="-1.00" shape="109.48,795.60 123.50,790.89 109.48,795.60" type="shop"/>
   <poly color="red" fill="1" id="111699864" layer="-1.00" shape="76.44,781.15 138.97,754.41 124.87,721.59 111.48,727.31 119.82,746.71 84.13,761.97 75.79,742.58 62.34,748.33 76.44,781.15" type="building"/>
   <poly color="red" fill="1" id="111815669" layer="-1.00" shape="313.42,215.27 337.58,205.95 335.12,199.64 322.96,204.34 319.42,195.22 331.60,190.52 329.30,184.61 305.14,193.94 313.42,215.27" type="building"/>
   <poly color="red" fill="1" id="111815672" layer="-1.00" shape="652.43,589.08 642.96,564.83 632.73,568.80 642.21,593.05 652.43,589.08" type="building"/>
   <poly color="red" fill="1" id="111815673" layer="-1.00" shape="284.20,179.40 318.93,165.75 307.79,137.54 273.05,151.19 284.20,179.40" type="building"/>
   <poly color="red" fill="1" id="111815673#1" layer="-1.00" shape="284.20,179.40 318.93,165.75 307.79,137.54 273.05,151.19 284.20,179.40" type="building"/>
   <poly color="red" fill="1" id="111815675" layer="-1.00" shape="613.55,10.51 622.11,6.73 613.55,10.51" type="building"/>
   <poly color="red" fill="1" id="111815679" layer="-1.00" shape="557.37,360.85 544.59,328.37 522.69,272.68 500.71,216.82 484.95,222.97 506.93,278.84 528.84,334.53 541.62,367.02 557.37,360.85" type="building"/>
   <poly color="red" fill="1" id="111815682" layer="-1.00" shape="193.87,133.56 212.16,126.47 214.10,131.44 215.78,135.74 272.57,113.70 270.92,109.47 151.35,24.59 193.87,133.56" type="building"/>
   <poly color="red" fill="1" id="111815682#1" layer="-1.00" shape="193.87,133.56 212.16,126.47 214.10,131.44 215.78,135.74 272.57,113.70 270.92,109.47 151.35,24.59 193.87,133.56" type="building"/>
   <poly color="red" fill="1" id="111815685" layer="-1.00" shape="415.67,795.89 412.93,787.02 401.35,791.12 405.24,799.98 415.67,795.89" type="building"/>
   <poly color="red" fill="1" id="111815693" layer="-1.00" shape="386.81,759.52 381.30,745.40 374.18,748.16 379.70,762.30 386.81,759.52" type="building"/>
   <poly color="red" fill="1" id="111815705" layer="-1.00" shape="599.52,140.55 602.19,133.34 582.93,126.59 580.80,111.74 566.43,113.51 570.22,130.96 599.52,140.55" type="building"/>
   <poly color="red" fill="1" id="111815712" layer="-1.00" shape="436.99,787.26 415.67,795.89 405.24,799.98 443.59,803.93 436.99,787.26" type="building"/>
   <poly color="red" fill="1" id="111815713" layer="-1.00" shape="581.92,678.10 579.85,672.82 563.66,679.14 565.73,684.42 581.92,678.10" type="building"/>
   <poly color="red" fill="0" id="111815716" layer="-1.00" shape="525.13,793.93 506.24,801.19" type="building"/>
   <poly color="red" fill="1" id="111815739" layer="-1.00" shape="602.49,26.01 611.28,21.98 602.49,26.01" type="building"/>
   <poly color="red" fill="1" id="111815747" layer="-1.00" shape="385.99,199.55 377.14,177.78 374.01,179.04 373.61,178.06 375.05,177.47 369.69,164.27 359.06,168.57 364.42,181.76 369.19,179.84 369.59,180.82 364.82,182.75 373.67,204.52 378.61,202.52 380.67,201.70 385.99,199.55" type="building"/>
   <poly color="red" fill="1" id="111815759" layer="-1.00" shape="412.93,787.02 402.62,757.99 391.04,762.09 401.35,791.12 412.93,787.02" type="building"/>
   <poly color="red" fill="1" id="111815771" layer="-1.00" shape="325.13,570.06 333.25,590.47 471.13,535.88 463.01,515.47 325.13,570.06" type="building"/>
   <poly color="red" fill="1" id="111815772" layer="-1.00" shape="594.73,377.99 641.98,359.50 638.21,349.89 590.95,368.38 594.73,377.99" type="building"/>
   <poly color="red" fill="0" id="111815775" layer="-1.00" shape="340.74,775.77 315.97,785.36" type="building"/>
   <poly color="red" fill="1" id="111815780" layer="-1.00" shape="251.54,727.75 243.63,707.48 206.19,722.02 214.10,742.29 251.54,727.75" type="building"/>
   <poly color="red" fill="1" id="111815796" layer="-1.00" shape="125.28,289.18 167.49,272.62 162.47,259.89 172.22,256.08 167.80,244.85 132.43,258.71 130.41,253.58 113.81,260.09 125.28,289.18" type="building"/>
   <poly color="red" fill="1" id="111815803" layer="-1.00" shape="483.54,141.73 478.46,128.82 495.01,122.34 500.09,135.25 483.54,141.73" type="building"/>
   <poly color="red" fill="1" id="111815811" layer="-1.00" shape="492.16,737.93 486.82,723.77 459.78,733.90 465.12,748.06 492.16,737.93" type="building"/>
   <poly color="red" fill="1" id="111815816" layer="-1.00" shape="396.44,234.91 442.39,216.74 441.01,213.27 464.52,203.99 460.57,194.05 414.67,212.21 410.80,202.46 387.23,211.77 396.44,234.91" type="building"/>
   <poly color="red" fill="1" id="111815821" layer="-1.00" shape="515.24,526.85 520.47,540.05 513.08,542.96 515.34,548.67 519.37,558.87 521.38,563.93 528.77,561.01 565.63,546.50 557.34,525.53 562.55,523.49 557.32,510.29 546.11,514.69 523.13,523.74 521.73,520.21 513.84,523.31 515.24,526.85" type="building"/>
   <poly color="red" fill="1" id="111815827" layer="-1.00" shape="634.65,128.21 598.49,104.62 588.41,119.97 624.57,143.57 634.65,128.21" type="building"/>
   <poly color="red" fill="1" id="111815837" layer="-1.00" shape="554.98,612.02 538.48,570.14 517.53,578.35 534.03,620.23 554.98,612.02" type="building"/>
   <poly color="red" fill="1" id="111815842" layer="-1.00" shape="506.64,418.04 543.31,403.54 513.57,328.70 476.90,343.21 506.64,418.04" type="building"/>
   <poly color="red" fill="1" id="111815863" layer="-1.00" shape="431.27,278.43 485.00,257.68 481.06,247.54 469.02,252.20 467.94,249.43 426.26,265.52 431.27,278.43" type="building"/>
   <poly color="red" fill="1" id="111815874" layer="-1.00" shape="319.02,757.69 305.73,723.68 293.11,728.58 306.40,762.60 319.02,757.69" type="building"/>
   <poly color="red" fill="1" id="111815879" layer="-1.00" shape="288.34,793.44 272.39,752.78 247.11,762.65 263.06,803.31 288.34,793.44" type="building"/>
   <poly color="red" fill="1" id="111815898" layer="-1.00" shape="328.64,695.01 322.06,678.18 269.87,698.50 276.47,715.33 328.64,695.01" type="building"/>
   <poly color="red" fill="1" id="111815905" layer="-1.00" shape="670.64,673.03 675.63,671.07 674.48,668.18 681.75,665.31 654.55,596.72 648.42,599.13 649.39,601.56 643.25,603.99 670.64,673.03" type="building"/>
   <poly color="red" fill="0" id="111815910" layer="-1.00" shape="456.37,779.67 436.99,787.26 443.59,803.93" type="building"/>
   <poly color="red" fill="1" id="111815915" layer="-1.00" shape="767.07,667.47 727.78,568.61 684.14,585.87 681.54,579.33 672.70,582.82 717.29,695.03 726.14,691.54 723.43,684.73 767.07,667.47" type="building"/>
   <poly color="red" fill="1" id="111815925" layer="-1.00" shape="389.58,165.31 420.83,153.30 417.64,145.03 386.38,157.05 389.58,165.31" type="building"/>
   <poly color="red" fill="1" id="111815926" layer="-1.00" shape="601.34,208.41 609.79,205.12 642.01,192.53 651.17,188.96 639.98,160.44 630.82,164.02 626.28,152.47 594.06,165.04 585.62,168.34 601.34,208.41" type="building"/>
   <poly color="red" fill="1" id="111815928" layer="-1.00" shape="562.02,659.69 554.06,639.06 541.85,643.75 549.81,664.37 562.02,659.69" type="building"/>
   <poly color="red" fill="1" id="111815930" layer="-1.00" shape="695.63,693.93 686.68,671.50 675.47,675.95 684.42,698.38 695.63,693.93" type="building"/>
   <poly color="red" fill="1" id="111815934" layer="-1.00" shape="554.73,779.98 570.77,773.50 553.88,731.90 537.84,738.38 554.73,779.98" type="building"/>
   <poly color="red" fill="1" id="111815935" layer="-1.00" shape="60.26,313.35 83.15,304.39 82.40,302.48 87.76,300.38 86.52,297.23 113.09,286.83 103.74,263.09 48.92,284.53 60.26,313.35" type="building"/>
   <poly color="red" fill="1" id="111815941" layer="-1.00" shape="423.12,776.71 455.45,763.13 447.10,743.36 414.77,756.96 423.12,776.71" type="building"/>
   <poly color="red" fill="1" id="111815943" layer="-1.00" shape="390.54,807.58" type="building"/>
   <poly color="red" fill="1" id="111815952" layer="-1.00" shape="213.00,207.39 284.20,179.40 273.05,151.19 268.77,140.37 197.57,168.36 213.00,207.39" type="building"/>
   <poly color="red" fill="1" id="111815952#1" layer="-1.00" shape="213.00,207.39 284.20,179.40 273.05,151.19 268.77,140.37 197.57,168.36 213.00,207.39" type="building"/>
   <poly color="237,199,255" fill="1" id="149464012" layer="-1.00" shape="355.78,17.25" type="shop"/>
   <poly color="red" fill="1" id="149464022" layer="-1.00" shape="273.84,79.39 293.24,71.82 310.36,115.46 306.48,116.96 309.55,124.77 298.54,129.07 295.48,121.26 290.96,123.02 273.84,79.39" type="building"/>
   <poly color="red" fill="1" id="155566726" layer="-1.00" shape="159.72,406.33 166.01,422.51 174.74,444.96 117.89,466.95 102.86,428.32 119.21,421.99 127.98,444.53 159.11,432.50 156.63,426.14 150.34,409.96 159.72,406.33" type="building"/>
   <poly color="209,209,204" fill="1" id="158760051" layer="-3.00" shape="49.00,389.91 46.40,383.14 46.48,380.90 23.37,323.25 26.73,322.19 25.92,318.89 39.62,314.03 30.31,290.15 25.46,292.23 22.86,291.55 0.40,287.81 9.50,134.15 68.26,74.07 135.40,51.32 205.04,230.75 326.67,180.57 334.95,180.47 341.04,184.04 474.39,522.27 474.33,532.05 472.54,536.53 329.69,594.93 209.37,643.35 207.43,638.16 204.93,631.49 209.53,629.58 162.16,511.13 127.57,525.07 109.83,482.39 107.04,481.33 106.05,478.64 69.13,382.11 49.00,389.91" type="industrial"/>
   <poly color="237,199,255" fill="1" id="165242938" layer="-1.00" shape="545.81,44.37 577.78,32.03 574.47,23.50 542.50,35.82 545.81,44.37" type="shop"/>
   <poly color="209,209,204" fill="0" id="215837220" layer="-3.00" shape="44.85,50.89 14.33,398.46 101.26,538.21 165.21,670.23 182.18,700.73 220.77,757.68 234.80,781.87 249.11,809.40 727.07,9.66 637.58,27.94 633.35,28.60" type="industrial"/>
   <poly color="140,196,107" fill="0" id="215837221" layer="-3.00" shape="633.35,28.60 637.58,27.94" type="forest"/>
   <poly color="red" fill="1" id="227766428" layer="-1.00" shape="383.92,390.97 401.85,384.05 397.82,373.66 407.98,369.74 414.10,385.52 386.00,396.36 383.92,390.97" type="building"/>
   <poly color="red" fill="1" id="229641368" layer="-1.00" shape="401.05,336.62 396.20,338.53 409.82,372.97 414.67,371.06 401.05,336.62" type="building"/>
   <poly color="red" fill="1" id="229641369" layer="-1.00" shape="331.60,190.52 319.42,195.22 322.96,204.34 335.12,199.64 331.60,190.52" type="building"/>
   <poly color="red" fill="1" id="229641370" layer="-1.00" shape="389.82,323.59 396.20,321.06 388.00,300.51 381.62,303.04 389.82,323.59" type="building"/>
   <poly color="red" fill="1" id="238758626" layer="-1.00" shape="241.67,606.44 278.93,591.52 277.51,587.99 276.02,588.59 271.15,576.49 272.64,575.89 271.37,572.73 234.11,587.65 241.67,606.44" type="building"/>
   <poly color="red" fill="1" id="238758627" layer="-1.00" shape="228.45,573.57 265.70,558.65 264.29,555.12 262.79,555.72 257.92,543.62 259.42,543.02 258.14,539.86 220.88,554.77 228.45,573.57" type="building"/>
   <poly color="red" fill="1" id="259271937" layer="-1.00" shape="388.66,756.03 439.28,737.80 430.16,712.59 379.54,730.81 388.66,756.03" type="building"/>
   <poly color="red" fill="1" id="260024982" layer="-1.00" shape="134.19,520.90 142.13,517.77 138.42,508.42 130.48,511.55 134.19,520.90" type="building"/>
   <poly color="red" fill="1" id="260028544" layer="-1.00" shape="50.36,377.56 60.56,373.71 44.65,331.86 34.45,335.72 50.36,377.56" type="building"/>
   <poly color="red" fill="1" id="260033579" layer="-1.00" shape="209.99,641.74 217.19,639.04 213.35,628.84 206.15,631.55 209.99,641.74" type="building"/>
   <poly color="red" fill="1" id="260033740" layer="-1.00" shape="273.11,366.93 269.39,357.62 280.17,353.33 283.89,362.64 273.11,366.93" type="building"/>
   <poly color="237,199,255" fill="1" id="260033740#1" layer="-1.00" shape="273.11,366.93 269.39,357.62 280.17,353.33 283.89,362.64 273.11,366.93" type="shop"/>
   <poly color="194,194,130" fill="1" id="260033812" layer="-3.00" shape="598.17,785.74 699.19,746.30 667.12,697.76 648.94,653.03 555.36,692.18 587.97,775.94 598.17,785.74" type="landuse"/>
   <poly color="red" fill="1" id="267506655" layer="-1.00" shape="24.90,777.18 19.11,779.67 24.69,792.55 51.10,781.17 40.41,756.51 29.63,761.15 19.79,765.39 24.90,777.18" type="building"/>
   <poly color="red" fill="0" id="267506659" layer="-1.00" shape="62.07,814.15 64.24,813.42 62.50,808.22 40.77,815.46" type="building"/>
   <poly color="184,184,179" fill="1" id="267506687" layer="-1.00" shape="73.82,599.15 86.79,629.13 22.83,656.66 73.82,599.15" type="parking"/>
   <poly color="red" fill="1" id="272016063" layer="-1.00" shape="329.40,689.56 339.45,685.83 334.73,673.19 324.68,676.92 329.40,689.56" type="building"/>
   <poly color="209,209,204" fill="1" id="272016064" layer="-3.00" shape="151.35,24.59 145.66,35.77 197.57,168.36 213.00,207.39 284.20,179.40 318.93,165.75 326.91,161.75 328.44,158.76 328.93,154.65 328.32,151.25 282.92,34.64 279.22,25.55 274.83,17.72 151.35,24.59" type="industrial"/>
   <poly color="184,184,179" fill="1" id="272016065" layer="-1.00" shape="207.43,638.16 204.93,631.49 209.53,629.58 162.16,511.13 127.57,525.07 109.83,482.39 107.04,481.33 69.13,382.11 49.00,389.91 24.75,399.69 32.17,424.62 34.92,430.74 37.37,433.55 40.52,435.21 44.42,435.62 51.66,434.22 66.19,474.26 81.31,467.94 148.65,632.34 153.46,630.74 164.25,658.36 174.17,654.53 173.05,651.56 207.43,638.16" type="parking"/>
   <poly color="red" fill="1" id="272016066" layer="-1.00" shape="149.76,159.11 123.53,169.49 106.02,125.51 132.24,115.11 149.76,159.11" type="building"/>
   <poly color="red" fill="1" id="272016067" layer="-1.00" shape="163.70,194.08 137.47,204.47 126.99,178.17 153.21,167.77 163.70,194.08" type="building"/>
   <poly color="red" fill="1" id="272016068" layer="-1.00" shape="118.56,80.76 128.85,106.60 102.63,117.00 92.33,91.14 118.56,80.76" type="building"/>
   <poly color="184,184,179" fill="1" id="28970109" layer="-1.00" shape="719.29,495.43 630.96,530.44 581.19,405.53 669.52,370.52 719.29,495.43" type="parking"/>
   <poly color="184,184,179" fill="1" id="28970157" layer="-1.00" shape="367.59,674.73 383.10,668.74 417.32,655.52 428.63,651.16 405.71,592.17 344.69,615.74 367.59,674.73" type="parking"/>
   <poly color="red" fill="1" id="28970157#1" layer="-1.00" shape="367.59,674.73 383.10,668.74 417.32,655.52 428.63,651.16 405.71,592.17 344.69,615.74 367.59,674.73" type="building"/>
   <poly color="209,209,204" fill="0" id="29417741" layer="-3.00" shape="788.10,737.10 728.24,769.29" type="industrial"/>
   <poly color="red" fill="1" id="294999331" layer="-1.00" shape="459.50,727.04 514.77,706.95 511.66,698.45 519.02,695.78 508.97,668.27 478.21,679.46 480.31,685.19 464.50,690.94 472.22,712.09 456.17,717.92 459.50,727.04" type="building"/>
   <poly color="red" fill="1" id="294999563" layer="-1.00" shape="615.20,536.58 629.19,531.13 610.32,482.95 596.33,488.39 615.20,536.58" type="building"/>
   <poly color="184,184,179" fill="1" id="294999764" layer="-1.00" shape="570.96,372.53 614.40,355.66 578.06,262.53 534.61,279.39 570.96,372.53" type="parking"/>
   <poly color="184,184,179" fill="1" id="295001171" layer="-1.00" shape="330.01,612.76 350.14,663.25 208.81,719.31 203.61,706.29 191.68,711.01 176.74,673.55 330.01,612.76" type="parking"/>
   <poly color="red" fill="1" id="32706310" layer="-1.00" shape="202.72,545.00 281.97,513.78 287.68,528.18 264.98,537.12 266.24,540.31 268.15,539.56 272.50,550.57 279.92,547.64 289.09,570.83 281.68,573.74 286.09,584.91 284.19,585.65 285.45,588.84 308.15,579.90 313.79,594.16 234.54,625.37 229.02,611.41 233.42,609.68 226.03,591.00 221.63,592.73 215.94,578.38 220.34,576.64 212.94,557.96 208.54,559.68 202.72,545.00" type="building"/>
   <poly color="red" fill="1" id="32706311" layer="-1.00" shape="128.73,225.43 184.80,203.21 127.66,59.74 71.59,81.95 128.73,225.43" type="building"/>
   <poly color="237,199,199" fill="1" id="32706312" layer="-1.00" shape="307.26,392.08 356.11,372.99 341.33,335.69 313.86,323.31 305.06,327.14 293.24,354.84 307.26,392.08" type="amenity"/>
   <poly color="red" fill="1" id="32706312#1" layer="-1.00" shape="307.26,392.08 356.11,372.99 341.33,335.69 313.86,323.31 305.06,327.14 293.24,354.84 307.26,392.08" type="building"/>
   <poly color="red" fill="1" id="32706313" layer="-1.00" shape="224.58,276.39 345.51,228.77 378.54,312.20 356.81,320.76 329.73,252.34 297.59,264.99 300.73,272.93 287.03,278.32 283.98,270.62 251.50,283.41 278.62,351.94 257.73,360.16 224.58,276.39" type="building"/>
   <poly color="red" fill="1" id="32706342" layer="-1.00" shape="102.86,428.32 119.21,421.99 150.34,409.96 159.72,406.33 152.06,386.86 161.62,383.16 168.73,401.47 167.49,401.94 171.83,413.09 223.61,393.07 228.41,405.41 226.63,406.08 177.45,425.12 183.80,441.46 233.38,422.45 242.59,418.72 191.96,288.48 67.25,336.71 102.86,428.32" type="building"/>
   <poly color="red" fill="1" id="342934473" layer="-1.00" shape="552.69,395.16 568.44,388.99 557.37,360.85 541.62,367.02 552.69,395.16" type="building"/>
   <poly color="184,184,179" fill="1" id="344543838" layer="-1.00" shape="657.60,354.09 708.09,333.65 660.40,211.75 610.08,231.66 657.60,354.09" type="parking"/>
   <poly color="red" fill="1" id="346966900" layer="-1.00" shape="313.65,68.79 333.05,61.15 316.41,19.12 297.00,26.78 313.65,68.79" type="building"/>
   <poly color="184,184,179" fill="1" id="346968148" layer="-1.00" shape="52.86,729.51 118.95,702.36 103.82,665.73 91.99,670.59 84.48,652.41 93.61,648.66 86.93,632.47 23.53,658.53 52.86,729.51" type="parking"/>
   <poly color="184,184,179" fill="1" id="346988809" layer="-1.00" shape="322.13,89.96 339.87,83.06 332.36,63.88 321.02,68.29 322.99,73.31 316.59,75.80 322.13,89.96" type="parking"/>
   <poly color="red" fill="1" id="346988954" layer="-1.00" shape="316.71,74.34 321.65,72.42 319.99,68.18 315.04,70.11 316.71,74.34" type="building"/>
   <poly color="184,184,179" fill="1" id="356861832" layer="-1.00" shape="38.12,548.58 40.18,553.23 21.86,561.29 19.80,556.64 38.12,548.58" type="parking"/>
   <poly color="184,184,179" fill="1" id="356861835" layer="-1.00" shape="23.65,597.16 28.43,595.09 18.58,572.39 13.79,574.46 23.65,597.16" type="parking"/>
   <poly color="184,184,179" fill="1" id="356861836" layer="-1.00" shape="35.59,563.13 49.11,557.31 51.01,561.69 37.48,567.51 35.59,563.13" type="parking"/>
   <poly color="184,184,179" fill="0" id="356861848" layer="-1.00" shape="18.25,557.33 14.51,548.68" type="parking"/>
   <poly color="184,184,179" fill="1" id="356861849" layer="-1.00" shape="33.55,592.88 38.33,590.82 28.48,568.12 23.69,570.18 33.55,592.88" type="parking"/>
   <poly color="184,184,179" fill="1" id="356861872" layer="-1.00" shape="53.81,731.96 60.21,746.81 76.17,739.96 84.80,759.97 117.42,745.98 108.80,725.98 123.55,719.65 117.14,704.81 53.81,731.96" type="parking"/>
   <poly color="184,184,179" fill="1" id="361314459" layer="-1.00" shape="547.15,797.55 541.38,782.86 530.93,786.94 536.69,801.63 547.15,797.55" type="parking"/>
   <poly color="184,184,179" fill="1" id="361314462" layer="-1.00" shape="506.05,802.51" type="parking"/>
   <poly color="184,184,179" fill="1" id="361314464" layer="-1.00" shape="575.23,782.83 551.73,792.24 548.40,783.96 571.90,774.55 575.23,782.83" type="parking"/>
   <poly color="207,245,201" fill="1" id="361347613" layer="-2.00" shape="288.06,335.50 289.03,335.81 290.15,335.61 292.52,334.81 294.84,332.98 298.82,328.26 301.77,325.91 309.77,321.14 316.97,319.60 323.95,319.86 330.66,320.95 337.53,322.95 352.26,359.21 358.11,356.93 325.60,273.98 271.90,294.92 287.58,334.94 288.06,335.50" type="leisure"/>
   <poly color="184,184,179" fill="1" id="361347614" layer="-1.00" shape="464.08,563.29 461.60,556.73 430.02,568.60 432.50,575.16 464.08,563.29" type="parking"/>
   <poly color="184,184,179" fill="1" id="361347615" layer="-1.00" shape="426.23,591.33 418.81,572.73 413.93,574.67 421.36,593.27 426.23,591.33" type="parking"/>
   <poly color="184,184,179" fill="1" id="361347630" layer="-1.00" shape="469.66,574.90 487.05,568.13 481.47,553.87 477.08,555.58 475.81,552.31 462.80,557.37 465.79,565.01 469.66,574.90" type="parking"/>
   <poly color="184,184,179" fill="0" id="361347632" layer="-1.00" shape="495.77,19.11 500.94,17.11" type="parking"/>
   <poly color="184,184,179" fill="1" id="361347634" layer="-1.00" shape="510.15,59.78 502.42,39.00 508.92,36.60 516.66,57.37 510.15,59.78" type="parking"/>
   <poly color="red" fill="1" id="361347635" layer="-1.00" shape="511.92,534.73 512.51,536.61 514.26,537.52 516.14,536.92 517.05,535.19 516.45,533.30 514.71,532.40 512.82,533.00 511.92,534.73" type="building"/>
   <poly color="red" fill="1" id="361347638" layer="-1.00" shape="585.56,538.86 588.68,546.30 590.92,545.37 587.81,537.92 585.56,538.86" type="building"/>
   <poly color="red" fill="1" id="361347642" layer="-1.00" shape="379.41,204.50 381.47,203.66 380.67,201.70 378.61,202.52 379.41,204.50" type="building"/>
   <poly color="red" fill="1" id="361347643" layer="-1.00" shape="579.24,532.10 580.20,531.73 586.15,529.41 575.76,502.89 568.85,505.59 579.24,532.10" type="building"/>
   <poly color="red" fill="1" id="361347645" layer="-1.00" shape="582.63,537.94 590.57,534.85 588.13,528.64 586.15,529.41 580.20,531.73 582.63,537.94" type="building"/>
   <poly color="red" fill="1" id="361347646" layer="-1.00" shape="565.73,684.42 560.49,686.46 558.15,680.47 563.38,678.43 563.66,679.14 565.73,684.42" type="building"/>
   <poly color="red" fill="1" id="361347650" layer="-1.00" shape="582.43,677.95 618.88,663.86 615.58,655.36 579.13,669.45 582.43,677.95" type="building"/>
   <poly color="red" fill="1" id="361347651" layer="-1.00" shape="571.07,500.02 577.03,497.71 573.23,487.94 567.27,490.23 571.07,500.02" type="building"/>
   <poly color="red" fill="1" id="361347652" layer="-1.00" shape="465.79,565.01 469.66,574.90 487.05,568.13 508.45,622.80 496.44,627.49 498.35,632.36 485.55,637.35 483.64,632.46 462.24,577.79 436.87,587.67 433.00,577.77 465.79,565.01" type="building"/>
   <poly color="red" fill="1" id="361347653" layer="-1.00" shape="433.51,72.97 473.28,57.33 456.88,15.86 481.28,6.26 408.73,10.29 433.51,72.97" type="building"/>
   <poly color="184,184,179" fill="1" id="361941231" layer="-1.00" shape="510.15,59.78 512.57,66.28 481.93,77.62 479.51,71.13 510.15,59.78" type="parking"/>
   <poly color="red" fill="1" id="366030802" layer="-1.00" shape="-1.44,178.53 -2.71,175.32 -1.44,178.53" type="building"/>
   <poly color="red" fill="1" id="367180766" layer="-1.00" shape="128.77,795.20 144.93,789.98 142.23,781.67 126.07,786.88 128.77,795.20" type="building"/>
   <poly color="184,184,179" fill="1" id="371827785" layer="-1.00" shape="765.98,354.57 762.66,342.54 756.86,344.14 760.19,356.16 765.98,354.57" type="parking"/>
   <poly color="184,184,179" fill="1" id="371827786" layer="-1.00" shape="772.12,376.71 768.82,364.81 763.03,366.40 766.32,378.31 772.12,376.71" type="parking"/>
   <poly color="184,184,179" fill="1" id="371827789" layer="-1.00" shape="709.96,184.79 686.40,115.56 653.93,127.96 641.18,154.68 659.58,203.53 709.96,184.79" type="parking"/>
   <poly color="red" fill="1" id="371827793" layer="-1.00" shape="763.53,365.11 770.39,363.20 768.78,357.46 761.92,359.38 763.53,365.11" type="building"/>
   <poly color="209,209,204" fill="1" id="371827805" layer="-3.00" shape="575.71,178.69 588.78,211.88 599.50,239.11 526.95,267.53 485.28,161.68 478.23,143.81 473.16,130.90 478.46,128.82 495.01,122.34 506.96,117.65 550.02,100.78 560.38,127.07 568.98,148.94 564.67,150.63 575.71,178.69" type="industrial"/>
   <poly color="209,209,204" fill="0" id="46159520" layer="-3.00" shape="637.58,27.94 727.07,9.66" type="commercial"/>
   <poly color="red" fill="0" id="50348396" layer="-1.00" shape="17.87,604.26 48.41,591.13 40.05,571.79 53.01,566.21 67.22,599.09" type="building"/>
   <poly color="184,184,179" fill="1" id="55081902" layer="-1.00" shape="437.59,120.46 421.77,90.48 405.23,70.77 394.92,75.30 387.23,56.99 370.25,42.24 337.15,24.91 349.92,59.03 333.99,65.26 341.42,83.59 322.68,90.79 349.18,156.25 437.59,120.46" type="parking"/>
   <poly color="red" fill="1" id="55128292" layer="-1.00" shape="97.22,239.99 126.01,313.01 131.76,310.76 99.88,229.92 86.07,235.34 80.65,237.47 75.92,225.46 63.00,230.53 55.06,210.42 36.60,163.61 -1.44,178.53 21.48,250.56 25.00,249.18 31.54,265.77 89.15,243.16 97.22,239.99" type="building"/>
   <poly color="184,184,179" fill="1" id="55128294" layer="-1.00" shape="120.20,42.99 125.48,21.83 45.52,57.13 -6.73,116.65 9.53,130.44 28.97,107.93 25.53,105.07 59.17,67.64 95.46,36.50 120.20,42.99" type="parking"/>
   <poly color="red" fill="1" id="55128294#1" layer="-1.00" shape="120.20,42.99 125.48,21.83 45.52,57.13 -6.73,116.65 9.53,130.44 28.97,107.93 25.53,105.07 59.17,67.64 95.46,36.50 120.20,42.99" type="building"/>
   <poly color="184,184,179" fill="1" id="55128297" layer="-1.00" shape="13.47,394.06 24.38,389.71 39.06,383.85 46.48,380.90 23.37,323.25 16.86,307.01 11.89,308.99 13.47,394.06" type="parking"/>
   <poly color="red" fill="1" id="55128297#1" layer="-1.00" shape="13.47,394.06 24.38,389.71 39.06,383.85 46.48,380.90 23.37,323.25 16.86,307.01 11.89,308.99 13.47,394.06" type="building"/>
   <poly color="red" fill="1" id="55128298" layer="-1.00" shape="222.78,237.49 221.09,235.18 218.58,233.19 215.54,231.97 212.08,231.67 208.85,232.36 208.34,231.05 205.40,232.68 202.97,234.99 201.20,237.92 200.26,241.20 200.25,244.89 201.26,248.38 202.93,251.12 205.24,253.37 208.74,255.26 211.64,255.93 214.84,255.88 217.65,255.17 217.02,253.52 220.06,251.74 222.29,249.28 223.40,247.18 224.17,243.80 223.96,240.67 222.78,237.49" type="building"/>
   <poly color="184,184,179" fill="1" id="55130014" layer="-1.00" shape="233.46,251.61 314.34,220.27 303.30,191.91 230.38,220.18 222.42,223.25 233.46,251.61" type="parking"/>
   <poly color="red" fill="1" id="55130323" layer="-1.00" shape="377.10,374.17 390.37,368.88 379.15,340.82 365.87,346.11 377.10,374.17" type="building"/>
   <poly color="red" fill="1" id="55130324" layer="-1.00" shape="429.55,508.58 457.64,497.74 414.10,385.52 386.00,396.36 429.55,508.58" type="building"/>
   <poly color="red" fill="1" id="55130327" layer="-1.00" shape="317.43,553.05 417.24,514.19 365.58,382.19 265.76,421.06 317.43,553.05" type="building"/>
   <poly color="red" fill="1" id="55130328" layer="-1.00" shape="188.89,541.58 277.65,506.62 255.82,451.46 167.05,486.40 188.89,541.58" type="building"/>
   <poly color="red" fill="1" id="89299195" layer="-1.00" shape="458.13,425.85 481.05,416.87 475.66,403.20 478.31,402.17 474.41,392.28 471.76,393.32 461.04,366.12 463.69,365.08 459.88,355.43 457.23,356.47 453.45,346.87 430.52,355.86 458.13,425.85" type="building"/>
   <poly color="red" fill="1" id="89299206" layer="-1.00" shape="592.73,270.55 619.75,339.68 635.89,333.41 608.88,264.28 592.73,270.55" type="building"/>
   <poly color="red" fill="0" id="89299218" layer="-1.00" shape="717.40,781.40 699.34,784.36 698.96,782.05 682.55,784.74 682.93,787.05 664.25,790.11 665.19,795.83 645.39,799.07" type="building"/>
   <poly color="red" fill="1" id="89299224" layer="-1.00" shape="546.41,143.55 559.81,138.30 564.67,150.63 575.71,178.69 562.31,183.93 546.41,143.55" type="building"/>
   <poly color="red" fill="1" id="89299233" layer="-1.00" shape="580.18,242.86 570.75,218.93 541.75,230.30 510.80,151.68 489.38,160.08 529.76,262.60 551.17,254.22 580.18,242.86" type="building"/>
   <poly color="red" fill="1" id="89299243" layer="-1.00" shape="497.33,434.05 547.41,414.59 572.62,479.11 522.86,498.45 517.53,484.80 553.18,470.95 538.75,434.00 502.76,447.98 497.33,434.05" type="building"/>
   <poly color="red" fill="1" id="99428147" layer="-1.00" shape="355.78,17.25" type="building"/>
   <poly color="184,184,179" fill="1" id="99428150" layer="-1.00" shape="550.02,100.78 506.96,117.65 513.77,135.74 516.62,138.85 520.89,140.64 525.59,140.76 529.39,139.21 560.38,127.07 550.02,100.78" type="parking"/>
   <poly color="red" fill="1" id="99428157" layer="-1.00" shape="542.50,35.82 574.47,23.50 542.50,35.82" type="building"/>