<?xml version="1.0" encoding="utf-8"?><!-- generated on 10/11/17 17:57:42 by SUMO netconvert Version 0.25.0
<?xml version="1.0" encoding="UTF-8"?>

<configuration xmlns:xsi="http://www.w3.org/2001/XMLSchema-instance" xsi:noNamespaceSchemaLocation="http://sumo.dlr.de/xsd/netconvertConfiguration.xsd">

    <input>
        <type-files value="osmNetconvert.typ.xml"/>
        <osm-files value="R_BusinessP_industrial_800.osm"/>
    </input>

    <output>
        <output-file value="R_BusinessP_industrial_800.net.xml"/>
    </output>

    <projection>
        <proj.utm value="true"/>
    </projection>

    <edge_removal>
        <remove-edges.by-type value="highway.track,highway.unsurfaced,highway.raceway,highway.bridleway,highway.path,highway.footway,highway.pedestrian,highway.cycleway,highway.step,highway.steps,highway.stairs,highway.bus_guideway,highway.ford,railway.rail,railway.tram,railway.light_rail,railway.subway,railway.preserved,railway.narrow_gauge,railway.monorail,railway.funicular"/>
    </edge_removal>

</configuration>
-->
<net version="0.25">
   <location convBoundary="0.00,0.00,801.43,807.01" netOffset="-290790.18,-5431927.01" origBoundary="12.139102,49.004962,12.150039,49.012120" projParameter="+proj=utm +zone=33 +ellps=WGS84 +datum=WGS84 +units=m +no_defs"/>
   <type allow="pedestrian" id="highway.bridleway" numLanes="1" oneway="1" priority="1" speed="2.78" width="2.00"/>
   <type allow="bus" id="highway.bus_guideway" numLanes="1" oneway="1" priority="1" speed="8.33"/>
   <type allow="bicycle" id="highway.cycleway" numLanes="1" oneway="0" priority="1" speed="5.56" width="1.00"/>
   <type allow="pedestrian" id="highway.footway" numLanes="1" oneway="1" priority="1" speed="8.33" width="2.00"/>
   <type allow="army" id="highway.ford" numLanes="1" oneway="0" priority="1" speed="2.78"/>
   <type disallow="tram rail_urban rail rail_electric ship" id="highway.living_street" numLanes="1" oneway="0" priority="3" speed="2.78"/>
   <type allow="private emergency authority army vip passenger hov taxi bus coach delivery truck trailer motorcycle evehicle custom1 custom2" id="highway.motorway" numLanes="2" oneway="1" priority="13" speed="44.44"/>
   <type allow="private emergency authority army vip passenger hov taxi bus coach delivery truck trailer motorcycle evehicle custom1 custom2" id="highway.motorway_link" numLanes="1" oneway="1" priority="12" speed="22.22"/>
   <type allow="bicycle pedestrian" id="highway.path" numLanes="1" oneway="1" priority="1" speed="2.78" width="2.00"/>
   <type allow="pedestrian" id="highway.pedestrian" numLanes="1" oneway="1" priority="1" speed="8.33" width="2.00"/>
   <type disallow="tram rail_urban rail rail_electric ship" id="highway.primary" numLanes="2" oneway="0" priority="9" speed="27.78"/>
   <type disallow="tram rail_urban rail rail_electric ship" id="highway.primary_link" numLanes="1" oneway="0" priority="8" speed="22.22"/>
   <type allow="vip" id="highway.raceway" numLanes="2" oneway="0" priority="14" speed="83.33"/>
   <type disallow="tram rail_urban rail rail_electric ship" id="highway.residential" numLanes="1" oneway="0" priority="4" speed="13.89"/>
   <type disallow="tram rail_urban rail rail_electric ship" id="highway.secondary" numLanes="2" oneway="0" priority="7" speed="27.78"/>
   <type disallow="tram rail_urban rail rail_electric ship" id="highway.secondary_link" numLanes="1" oneway="0" priority="6" speed="22.22"/>
   <type allow="delivery bicycle pedestrian" id="highway.service" numLanes="1" oneway="0" priority="2" speed="5.56"/>
   <type disallow="tram rail_urban rail rail_electric ship" id="highway.services" numLanes="1" oneway="0" priority="1" speed="8.33"/>
   <type allow="pedestrian" id="highway.stairs" numLanes="1" oneway="1" priority="1" speed="1.39" width="2.00"/>
   <type allow="pedestrian" id="highway.step" numLanes="1" oneway="1" priority="1" speed="1.39" width="2.00"/>
   <type allow="pedestrian" id="highway.steps" numLanes="1" oneway="1" priority="1" speed="1.39" width="2.00"/>
   <type disallow="tram rail_urban rail rail_electric ship" id="highway.tertiary" numLanes="1" oneway="0" priority="6" speed="22.22"/>
   <type disallow="tram rail_urban rail rail_electric ship" id="highway.tertiary_link" numLanes="1" oneway="0" priority="5" speed="22.22"/>
   <type disallow="tram rail_urban rail rail_electric ship" id="highway.track" numLanes="1" oneway="0" priority="1" speed="5.56"/>
   <type disallow="tram rail_urban rail rail_electric bicycle pedestrian ship" id="highway.trunk" numLanes="2" oneway="0" priority="11" speed="27.78"/>
   <type disallow="tram rail_urban rail rail_electric bicycle pedestrian ship" id="highway.trunk_link" numLanes="1" oneway="0" priority="10" speed="22.22"/>
   <type disallow="tram rail_urban rail rail_electric ship" id="highway.unclassified" numLanes="1" oneway="0" priority="5" speed="13.89"/>
   <type disallow="tram rail_urban rail rail_electric ship" id="highway.unsurfaced" numLanes="1" oneway="0" priority="1" speed="8.33"/>
   <type allow="rail_urban" id="railway.light_rail" numLanes="1" oneway="1" priority="15" speed="27.78"/>
   <type allow="rail" id="railway.preserved" numLanes="1" oneway="1" priority="15" speed="27.78"/>
   <type allow="rail rail_electric" id="railway.rail" numLanes="1" oneway="1" priority="15" speed="83.33"/>
   <type allow="rail_urban" id="railway.subway" numLanes="1" oneway="1" priority="15" speed="27.78"/>
   <type allow="tram" id="railway.tram" numLanes="1" oneway="1" priority="15" speed="13.89"/>
   <edge function="internal" id=":1036100981_0">
      <lane allow="delivery bicycle pedestrian" id=":1036100981_0_0" index="0" length="4.82" shape="551.47,106.34 552.92,106.66 553.61,107.28 553.52,108.19 552.67,109.41" speed="5.56"/>
   </edge>
   <edge function="internal" id=":1036101042_0">
      <lane disallow="tram rail_urban rail rail_electric ship" id=":1036101042_0_0" index="0" length="5.03" shape="600.07,395.37 599.39,394.16 598.49,393.46 597.37,393.27 596.04,393.58" speed="9.73"/>
   </edge>
   <edge function="internal" id=":1036101042_1">
      <lane disallow="tram rail_urban rail rail_electric ship" id=":1036101042_1_0" index="0" length="10.38" shape="600.07,395.37 599.41,392.60 599.81,390.29 601.25,388.45 603.74,387.07" speed="9.73"/>
   </edge>
   <edge function="internal" id=":1036101042_2">
      <lane allow="delivery bicycle pedestrian" id=":1036101042_2_0" index="0" length="4.82" shape="600.07,395.37 600.39,393.92 601.00,393.23 601.92,393.31 603.14,394.16" speed="5.56"/>
   </edge>
   <edge function="internal" id=":1036101042_3">
      <lane allow="delivery bicycle pedestrian" id=":1036101042_3_0" index="0" length="5.01" shape="604.91,390.15 603.71,390.82 603.01,391.71 602.82,392.82 603.14,394.16" speed="9.73"/>
   </edge>
   <edge function="internal" id=":1036101042_4">
      <lane disallow="tram rail_urban rail rail_electric ship" id=":1036101042_4_0" index="0" length="9.51" shape="604.91,390.15 596.04,393.58" speed="13.89"/>
   </edge>
   <edge function="internal" id=":1036101042_5">
      <lane disallow="tram rail_urban rail rail_electric ship" id=":1036101042_5_0" index="0" length="2.41" shape="604.91,390.15 603.46,389.82 602.78,389.20" speed="13.89"/>
   </edge>
   <edge function="internal" id=":1036101042_9">
      <lane id=":1036101042_9_0" index="0" length="2.41" shape="602.78,389.20 602.87,388.28 603.74,387.07" speed="13.89"/>
   </edge>
   <edge function="internal" id=":1036101042_6">
      <lane disallow="tram rail_urban rail rail_electric ship" id=":1036101042_6_0" index="0" length="9.54" shape="594.84,390.50 603.74,387.07" speed="13.89"/>
   </edge>
   <edge function="internal" id=":1036101042_7">
      <lane allow="delivery bicycle pedestrian" id=":1036101042_7_0" index="0" length="5.29" shape="594.84,390.50 597.59,389.86 599.89,390.25 599.99,390.33" speed="9.73"/>
   </edge>
   <edge function="internal" id=":1036101042_8">
      <lane disallow="tram rail_urban rail rail_electric ship" id=":1036101042_8_0" index="0" length="2.41" shape="594.84,390.50 596.29,390.82 596.97,391.44" speed="13.89"/>
   </edge>
   <edge function="internal" id=":1036101042_10">
      <lane id=":1036101042_10_0" index="0" length="5.05" shape="599.99,390.33 601.74,391.69 603.14,394.16" speed="9.73"/>
   </edge>
   <edge function="internal" id=":1036101042_11">
      <lane id=":1036101042_11_0" index="0" length="2.41" shape="596.97,391.44 596.89,392.36 596.04,393.58" speed="13.89"/>
   </edge>
   <edge function="internal" id=":1036101142_0">
      <lane disallow="tram rail_urban rail rail_electric ship" id=":1036101142_0_0" index="0" length="0.17" shape="622.52,38.47 622.36,38.53" speed="13.89"/>
   </edge>
   <edge function="internal" id=":1036101142_1">
      <lane disallow="tram rail_urban rail rail_electric ship" id=":1036101142_1_0" index="0" length="2.41" shape="622.52,38.47 621.09,38.07 620.44,37.42" speed="13.89"/>
   </edge>
   <edge function="internal" id=":1036101142_4">
      <lane id=":1036101142_4_0" index="0" length="2.41" shape="620.44,37.42 620.57,36.50 621.49,35.33" speed="13.89"/>
   </edge>
   <edge function="internal" id=":1036101142_2">
      <lane disallow="tram rail_urban rail rail_electric ship" id=":1036101142_2_0" index="0" length="0.51" shape="621.01,35.52 621.49,35.33" speed="13.89"/>
   </edge>
   <edge function="internal" id=":1036101142_3">
      <lane disallow="tram rail_urban rail rail_electric ship" id=":1036101142_3_0" index="0" length="2.41" shape="621.01,35.52 622.48,35.76 623.19,36.35" speed="13.89"/>
   </edge>
   <edge function="internal" id=":1036101142_5">
      <lane id=":1036101142_5_0" index="0" length="2.41" shape="623.19,36.35 623.15,37.27 622.36,38.53" speed="13.89"/>
   </edge>
   <edge function="internal" id=":1036101143_0">
      <lane allow="delivery bicycle pedestrian" id=":1036101143_0_0" index="0" length="4.34" shape="512.81,128.49 512.13,127.21 511.37,126.41 510.55,126.07 509.66,126.19" speed="5.56"/>
   </edge>
   <edge function="internal" id=":1036101143_1">
      <lane allow="delivery bicycle pedestrian" id=":1036101143_1_0" index="0" length="10.52" shape="512.81,128.49 512.05,125.69 512.38,123.36 513.81,121.47 516.33,120.05" speed="5.56"/>
   </edge>
   <edge function="internal" id=":1036101143_2">
      <lane allow="delivery bicycle pedestrian" id=":1036101143_2_0" index="0" length="4.82" shape="512.81,128.49 513.08,127.02 513.67,126.32 514.59,126.37 515.84,127.17" speed="5.56"/>
   </edge>
   <edge function="internal" id=":1036101143_3">
      <lane allow="delivery bicycle pedestrian" id=":1036101143_3_0" index="0" length="5.05" shape="517.53,123.12 516.32,123.81 515.63,124.71 515.47,125.83 515.84,127.17" speed="5.56"/>
   </edge>
   <edge function="internal" id=":1036101143_4">
      <lane allow="delivery bicycle pedestrian" id=":1036101143_4_0" index="0" length="8.45" shape="517.53,123.12 509.66,126.19" speed="5.56"/>
   </edge>
   <edge function="internal" id=":1036101143_5">
      <lane allow="delivery bicycle pedestrian" id=":1036101143_5_0" index="0" length="4.82" shape="517.53,123.12 516.07,122.80 515.39,122.19 515.47,121.27 516.33,120.05" speed="5.56"/>
   </edge>
   <edge function="internal" id=":1036101143_6">
      <lane allow="delivery bicycle pedestrian" id=":1036101143_6_0" index="0" length="9.30" shape="507.66,123.43 516.33,120.05" speed="5.56"/>
   </edge>
   <edge function="internal" id=":1036101143_7">
      <lane allow="delivery bicycle pedestrian" id=":1036101143_7_0" index="0" length="10.17" shape="507.66,123.43 510.27,122.84 512.51,123.27 514.36,124.72 515.84,127.17" speed="5.56"/>
   </edge>
   <edge function="internal" id=":1036101143_8">
      <lane allow="delivery bicycle pedestrian" id=":1036101143_8_0" index="0" length="4.98" shape="507.66,123.43 509.20,123.37 510.04,123.81 510.19,124.75 509.66,126.19" speed="5.56"/>
   </edge>
   <edge function="internal" id=":1036101458_0">
      <lane allow="delivery bicycle pedestrian" id=":1036101458_0_0" index="0" length="4.82" shape="558.01,121.79 559.47,122.09 560.16,122.70 560.09,123.62 559.25,124.85" speed="5.56"/>
   </edge>
   <edge function="internal" id=":1036101593_0">
      <lane allow="delivery bicycle pedestrian" id=":1036101593_0_0" index="0" length="9.30" shape="504.67,131.20 501.37,122.51" speed="5.56"/>
   </edge>
   <edge function="internal" id=":1036101593_1">
      <lane allow="delivery bicycle pedestrian" id=":1036101593_1_0" index="0" length="9.32" shape="504.67,131.20 504.02,128.56 504.28,126.40 505.43,124.71 507.47,123.50" speed="5.56"/>
   </edge>
   <edge function="internal" id=":1036101593_2">
      <lane allow="delivery bicycle pedestrian" id=":1036101593_2_0" index="0" length="6.23" shape="504.67,131.20 503.81,129.48 503.88,128.29 504.87,127.63 506.79,127.50" speed="5.56"/>
   </edge>
   <edge function="internal" id=":1036101593_3">
      <lane allow="delivery bicycle pedestrian" id=":1036101593_3_0" index="0" length="2.96" shape="509.47,126.26 508.27,126.74 507.43,127.11 506.94,127.36 506.79,127.50" speed="5.56"/>
   </edge>
   <edge function="internal" id=":1036101593_4">
      <lane allow="delivery bicycle pedestrian" id=":1036101593_4_0" index="0" length="10.20" shape="509.47,126.26 506.78,126.88 504.54,126.46 502.73,125.00 501.37,122.51" speed="5.56"/>
   </edge>
   <edge function="internal" id=":1036101593_5">
      <lane allow="delivery bicycle pedestrian" id=":1036101593_5_0" index="0" length="4.98" shape="509.47,126.26 507.93,126.32 507.09,125.88 506.94,124.94 507.47,123.50" speed="5.56"/>
   </edge>
   <edge function="internal" id=":1036101593_6">
      <lane allow="delivery bicycle pedestrian" id=":1036101593_6_0" index="0" length="4.19" shape="504.45,121.34 505.05,122.56 505.76,123.33 506.57,123.65 507.47,123.50" speed="5.56"/>
   </edge>
   <edge function="internal" id=":1036101593_7">
      <lane allow="delivery bicycle pedestrian" id=":1036101593_7_0" index="0" length="6.60" shape="504.45,121.34 506.79,127.50" speed="5.56"/>
   </edge>
   <edge function="internal" id=":1036101593_8">
      <lane allow="delivery bicycle pedestrian" id=":1036101593_8_0" index="0" length="4.82" shape="504.45,121.34 504.12,122.79 503.49,123.47 502.58,123.37 501.37,122.51" speed="5.56"/>
   </edge>
   <edge function="internal" id=":1036101612_0">
      <lane allow="delivery bicycle pedestrian" id=":1036101612_0_0" index="0" length="2.58" shape="510.45,155.30 510.10,154.69 509.64,154.33 509.07,154.24 508.38,154.40" speed="5.56"/>
   </edge>
   <edge function="internal" id=":1036101612_1">
      <lane allow="delivery bicycle pedestrian" id=":1036101612_1_0" index="0" length="2.20" shape="510.45,155.30 510.77,153.85 511.24,153.32" speed="5.56"/>
   </edge>
   <edge function="internal" id=":1036101612_4">
      <lane id=":1036101612_4_0" index="0" length="2.62" shape="511.24,153.32 511.38,153.16 512.30,153.24 513.52,154.09" speed="5.56"/>
   </edge>
   <edge function="internal" id=":1036101612_2">
      <lane allow="delivery bicycle pedestrian" id=":1036101612_2_0" index="0" length="7.89" shape="507.18,151.33 509.28,150.83 511.04,151.13 512.45,152.21 513.52,154.09" speed="5.56"/>
   </edge>
   <edge function="internal" id=":1036101612_3">
      <lane allow="delivery bicycle pedestrian" id=":1036101612_3_0" index="0" length="2.80" shape="507.18,151.33 508.63,151.64 509.31,152.26 509.28,152.65" speed="5.56"/>
   </edge>
   <edge function="internal" id=":1036101612_5">
      <lane id=":1036101612_5_0" index="0" length="2.02" shape="509.28,152.65 509.23,153.18 508.38,154.40" speed="5.56"/>
   </edge>
   <edge function="internal" id=":1229126647_0">
      <lane allow="delivery bicycle pedestrian" id=":1229126647_0_0" index="0" length="9.50" shape="282.02,685.77 273.15,689.16" speed="5.56"/>
   </edge>
   <edge function="internal" id=":1229126647_1">
      <lane allow="delivery bicycle pedestrian" id=":1229126647_1_0" index="0" length="10.32" shape="282.02,685.77 279.28,686.39 276.99,685.98 275.14,684.54 273.74,682.07" speed="5.56"/>
   </edge>
   <edge function="internal" id=":1229126647_2">
      <lane allow="delivery bicycle pedestrian" id=":1229126647_2_0" index="0" length="4.82" shape="282.02,685.77 280.57,685.44 279.89,684.82 279.98,683.90 280.85,682.69" speed="5.56"/>
   </edge>
   <edge function="internal" id=":1229126647_3">
      <lane allow="delivery bicycle pedestrian" id=":1229126647_3_0" index="0" length="5.04" shape="276.81,680.86 277.50,682.07 278.40,682.78 279.51,682.98 280.85,682.69" speed="5.56"/>
   </edge>
   <edge function="internal" id=":1229126647_4">
      <lane allow="delivery bicycle pedestrian" id=":1229126647_4_0" index="0" length="10.37" shape="276.81,680.86 277.47,683.63 277.08,685.93 275.64,687.78 273.15,689.16" speed="5.56"/>
   </edge>
   <edge function="internal" id=":1229126647_5">
      <lane allow="delivery bicycle pedestrian" id=":1229126647_5_0" index="0" length="4.82" shape="276.81,680.86 276.50,682.31 275.88,683.00 274.96,682.92 273.74,682.07" speed="5.56"/>
   </edge>
   <edge function="internal" id=":1229126647_6">
      <lane allow="delivery bicycle pedestrian" id=":1229126647_6_0" index="0" length="5.01" shape="271.97,686.08 273.17,685.41 273.87,684.52 274.06,683.40 273.74,682.07" speed="5.56"/>
   </edge>
   <edge function="internal" id=":1229126647_7">
      <lane allow="delivery bicycle pedestrian" id=":1229126647_7_0" index="0" length="9.50" shape="271.97,686.08 280.85,682.69" speed="5.56"/>
   </edge>
   <edge function="internal" id=":1229126647_8">
      <lane allow="delivery bicycle pedestrian" id=":1229126647_8_0" index="0" length="4.82" shape="271.97,686.08 273.42,686.41 274.10,687.03 274.01,687.95 273.15,689.16" speed="5.56"/>
   </edge>
   <edge function="internal" id=":1229126652_0">
      <lane allow="delivery bicycle pedestrian" id=":1229126652_0_0" index="0" length="7.84" shape="215.59,711.15 213.50,711.62 211.75,711.32 210.35,710.24 209.29,708.37" speed="5.56"/>
   </edge>
   <edge function="internal" id=":1229126652_1">
      <lane allow="delivery bicycle pedestrian" id=":1229126652_1_0" index="0" length="2.80" shape="215.59,711.15 214.14,710.82 213.46,710.20 213.50,709.81" speed="5.56"/>
   </edge>
   <edge function="internal" id=":1229126652_4">
      <lane id=":1229126652_4_0" index="0" length="2.02" shape="213.50,709.81 213.55,709.28 214.41,708.07" speed="5.56"/>
   </edge>
   <edge function="internal" id=":1229126652_2">
      <lane allow="delivery bicycle pedestrian" id=":1229126652_2_0" index="0" length="2.56" shape="212.35,707.16 212.70,707.77 213.16,708.12 213.73,708.22 214.41,708.07" speed="5.56"/>
   </edge>
   <edge function="internal" id=":1229126652_3">
      <lane allow="delivery bicycle pedestrian" id=":1229126652_3_0" index="0" length="2.20" shape="212.35,707.16 212.04,708.61 211.57,709.14" speed="5.56"/>
   </edge>
   <edge function="internal" id=":1229126652_5">
      <lane id=":1229126652_5_0" index="0" length="2.62" shape="211.57,709.14 211.43,709.30 210.51,709.22 209.29,708.37" speed="5.56"/>
   </edge>
   <edge function="internal" id=":1229126655_0">
      <lane disallow="tram rail_urban rail rail_electric ship" id=":1229126655_0_0" index="0" length="3.21" shape="402.42,575.48 402.17,575.37 401.58,575.44 400.64,575.72 399.37,576.18" speed="9.73"/>
   </edge>
   <edge function="internal" id=":1229126655_1">
      <lane disallow="tram rail_urban rail rail_electric ship" id=":1229126655_1_0" index="0" length="8.28" shape="402.42,575.48 402.20,573.81 402.88,572.27 404.47,570.88 406.97,569.63" speed="9.73"/>
   </edge>
   <edge function="internal" id=":1229126655_2">
      <lane allow="delivery bicycle pedestrian" id=":1229126655_2_0" index="0" length="5.80" shape="402.42,575.48 403.72,574.25 404.79,573.98 405.66,574.68 406.30,576.35" speed="5.56"/>
   </edge>
   <edge function="internal" id=":1229126655_3">
      <lane allow="delivery bicycle pedestrian" id=":1229126655_3_0" index="0" length="4.67" shape="408.19,572.70 407.00,573.36 406.29,574.18 406.05,575.18 406.30,576.35" speed="9.73"/>
   </edge>
   <edge function="internal" id=":1229126655_4">
      <lane disallow="tram rail_urban rail rail_electric ship" id=":1229126655_4_0" index="0" length="9.49" shape="408.19,572.70 399.37,576.18" speed="13.89"/>
   </edge>
   <edge function="internal" id=":1229126655_5">
      <lane disallow="tram rail_urban rail rail_electric ship" id=":1229126655_5_0" index="0" length="2.41" shape="408.19,572.70 406.74,572.39 406.05,571.78" speed="13.89"/>
   </edge>
   <edge function="internal" id=":1229126655_9">
      <lane id=":1229126655_9_0" index="0" length="2.41" shape="406.05,571.78 406.13,570.86 406.97,569.63" speed="13.89"/>
   </edge>
   <edge function="internal" id=":1229126655_6">
      <lane disallow="tram rail_urban rail rail_electric ship" id=":1229126655_6_0" index="0" length="9.47" shape="398.17,573.11 406.97,569.63" speed="13.89"/>
   </edge>
   <edge function="internal" id=":1229126655_7">
      <lane allow="delivery bicycle pedestrian" id=":1229126655_7_0" index="0" length="5.34" shape="398.17,573.11 400.91,572.44 403.18,572.75 403.37,572.89" speed="9.73"/>
   </edge>
   <edge function="internal" id=":1229126655_8">
      <lane disallow="tram rail_urban rail rail_electric ship" id=":1229126655_8_0" index="0" length="2.41" shape="398.17,573.11 399.62,573.43 400.30,574.05" speed="13.89"/>
   </edge>
   <edge function="internal" id=":1229126655_10">
      <lane id=":1229126655_10_0" index="0" length="4.64" shape="403.37,572.89 404.98,574.06 406.30,576.35" speed="9.73"/>
   </edge>
   <edge function="internal" id=":1229126655_11">
      <lane id=":1229126655_11_0" index="0" length="2.41" shape="400.30,574.05 400.22,574.97 399.37,576.18" speed="13.89"/>
   </edge>
   <edge function="internal" id=":1229126670_0">
      <lane disallow="tram rail_urban rail rail_electric ship" id=":1229126670_0_0" index="0" length="4.29" shape="223.04,648.10 222.51,647.28 221.72,646.86 220.67,646.84 219.36,647.21" speed="9.73"/>
   </edge>
   <edge function="internal" id=":1229126670_1">
      <lane disallow="tram rail_urban rail rail_electric ship" id=":1229126670_1_0" index="0" length="9.60" shape="223.04,648.10 222.53,645.72 223.02,643.68 224.50,641.99 226.97,640.64" speed="9.73"/>
   </edge>
   <edge function="internal" id=":1229126670_2">
      <lane allow="delivery bicycle pedestrian" id=":1229126670_2_0" index="0" length="5.61" shape="223.04,648.10 222.49,646.46 222.70,645.40 223.66,644.93 225.39,645.05" speed="5.56"/>
   </edge>
   <edge function="internal" id=":1229126670_3">
      <lane allow="delivery bicycle pedestrian" id=":1229126670_3_0" index="0" length="3.13" shape="228.19,643.71 226.93,644.22 226.05,644.61 225.53,644.89 225.39,645.05" speed="9.73"/>
   </edge>
   <edge function="internal" id=":1229126670_4">
      <lane disallow="tram rail_urban rail rail_electric ship" id=":1229126670_4_0" index="0" length="9.50" shape="228.19,643.71 219.36,647.21" speed="13.89"/>
   </edge>
   <edge function="internal" id=":1229126670_5">
      <lane disallow="tram rail_urban rail rail_electric ship" id=":1229126670_5_0" index="0" length="2.41" shape="228.19,643.71 226.74,643.39 226.05,642.78" speed="13.89"/>
   </edge>
   <edge function="internal" id=":1229126670_9">
      <lane id=":1229126670_9_0" index="0" length="2.41" shape="226.05,642.78 226.13,641.86 226.97,640.64" speed="13.89"/>
   </edge>
   <edge function="internal" id=":1229126670_6">
      <lane disallow="tram rail_urban rail rail_electric ship" id=":1229126670_6_0" index="0" length="9.51" shape="218.14,644.14 226.97,640.64" speed="13.89"/>
   </edge>
   <edge function="internal" id=":1229126670_7">
      <lane allow="delivery bicycle pedestrian" id=":1229126670_7_0" index="0" length="6.14" shape="218.14,644.14 220.83,643.31 222.93,643.19 224.07,643.62" speed="9.73"/>
   </edge>
   <edge function="internal" id=":1229126670_8">
      <lane disallow="tram rail_urban rail rail_electric ship" id=":1229126670_8_0" index="0" length="2.41" shape="218.14,644.14 219.59,644.45 220.28,645.07" speed="13.89"/>
   </edge>
   <edge function="internal" id=":1229126670_10">
      <lane id=":1229126670_10_0" index="0" length="2.00" shape="224.07,643.62 224.45,643.77 225.39,645.05" speed="9.73"/>
   </edge>
   <edge function="internal" id=":1229126670_11">
      <lane id=":1229126670_11_0" index="0" length="2.41" shape="220.28,645.07 220.20,645.99 219.36,647.21" speed="13.89"/>
   </edge>
   <edge function="internal" id=":1229126671_0">
      <lane allow="delivery bicycle pedestrian" id=":1229126671_0_0" index="0" length="6.20" shape="389.99,677.94 384.21,680.17" speed="5.56"/>
   </edge>
   <edge function="internal" id=":1229126671_1">
      <lane allow="delivery bicycle pedestrian" id=":1229126671_1_0" index="0" length="7.85" shape="389.99,677.94 388.58,678.05 387.25,677.28 385.98,675.63 384.79,673.08" speed="5.56"/>
   </edge>
   <edge function="internal" id=":1229126671_2">
      <lane allow="delivery bicycle pedestrian" id=":1229126671_2_0" index="0" length="4.82" shape="389.99,677.94 388.54,677.61 387.86,676.99 387.94,676.08 388.80,674.86" speed="5.56"/>
   </edge>
   <edge function="internal" id=":1229126671_3">
      <lane allow="delivery bicycle pedestrian" id=":1229126671_3_0" index="0" length="5.00" shape="383.02,677.09 384.21,676.42 384.91,675.53 385.10,674.42 384.79,673.08" speed="5.56"/>
   </edge>
   <edge function="internal" id=":1229126671_4">
      <lane allow="delivery bicycle pedestrian" id=":1229126671_4_0" index="0" length="6.20" shape="383.02,677.09 388.80,674.86" speed="5.56"/>
   </edge>
   <edge function="internal" id=":1229126671_5">
      <lane allow="delivery bicycle pedestrian" id=":1229126671_5_0" index="0" length="4.82" shape="383.02,677.09 384.47,677.42 385.15,678.04 385.06,678.96 384.21,680.17" speed="5.56"/>
   </edge>
   <edge function="internal" id=":1229126672_0">
      <lane allow="delivery bicycle pedestrian" id=":1229126672_0_0" index="0" length="9.82" shape="27.99,407.07 26.59,397.35" speed="5.56"/>
   </edge>
   <edge function="internal" id=":1229126672_1">
      <lane allow="delivery bicycle pedestrian" id=":1229126672_1_0" index="0" length="10.42" shape="27.99,407.07 27.42,404.26 27.89,401.97 29.40,400.17 31.96,398.88" speed="5.56"/>
   </edge>
   <edge function="internal" id=":1229126672_2">
      <lane allow="delivery bicycle pedestrian" id=":1229126672_2_0" index="0" length="4.82" shape="27.99,407.07 28.35,405.63 28.99,404.96 29.90,405.07 31.10,405.96" speed="5.56"/>
   </edge>
   <edge function="internal" id=":1229126672_3">
      <lane allow="delivery bicycle pedestrian" id=":1229126672_3_0" index="0" length="5.02" shape="33.01,402.01 31.78,402.63 31.05,403.50 30.82,404.60 31.10,405.96" speed="5.56"/>
   </edge>
   <edge function="internal" id=":1229126672_4">
      <lane allow="delivery bicycle pedestrian" id=":1229126672_4_0" index="0" length="9.09" shape="33.01,402.01 30.87,402.30 29.09,401.62 27.66,399.97 26.59,397.35" speed="5.56"/>
   </edge>
   <edge function="internal" id=":1229126672_5">
      <lane allow="delivery bicycle pedestrian" id=":1229126672_5_0" index="0" length="4.82" shape="33.01,402.01 31.57,401.62 30.92,400.97 31.05,400.06 31.96,398.88" speed="5.56"/>
   </edge>
   <edge function="internal" id=":1229126690_0">
      <lane allow="delivery bicycle pedestrian" id=":1229126690_0_0" index="0" length="9.46" shape="290.14,675.33 286.69,666.52" speed="5.56"/>
   </edge>
   <edge function="internal" id=":1229126690_1">
      <lane allow="delivery bicycle pedestrian" id=":1229126690_1_0" index="0" length="10.34" shape="290.14,675.33 289.50,672.56 289.90,670.26 291.34,668.42 293.82,667.05" speed="5.56"/>
   </edge>
   <edge function="internal" id=":1229126690_2">
      <lane allow="delivery bicycle pedestrian" id=":1229126690_2_0" index="0" length="4.82" shape="290.14,675.33 290.47,673.87 291.09,673.19 292.00,673.28 293.22,674.13" speed="5.56"/>
   </edge>
   <edge function="internal" id=":1229126690_3">
      <lane allow="delivery bicycle pedestrian" id=":1229126690_3_0" index="0" length="5.01" shape="295.00,670.13 293.80,670.79 293.11,671.68 292.91,672.80 293.22,674.13" speed="5.56"/>
   </edge>
   <edge function="internal" id=":1229126690_4">
      <lane allow="delivery bicycle pedestrian" id=":1229126690_4_0" index="0" length="10.30" shape="295.00,670.13 292.24,670.76 289.94,670.37 288.09,668.95 286.69,666.52" speed="5.56"/>
   </edge>
   <edge function="internal" id=":1229126690_5">
      <lane allow="delivery bicycle pedestrian" id=":1229126690_5_0" index="0" length="4.82" shape="295.00,670.13 293.55,669.80 292.87,669.18 292.96,668.26 293.82,667.05" speed="5.56"/>
   </edge>
   <edge function="internal" id=":1229126690_6">
      <lane allow="delivery bicycle pedestrian" id=":1229126690_6_0" index="0" length="5.03" shape="289.76,665.30 290.44,666.48 291.34,667.17 292.47,667.36 293.82,667.05" speed="5.56"/>
   </edge>
   <edge function="internal" id=":1229126690_7">
      <lane allow="delivery bicycle pedestrian" id=":1229126690_7_0" index="0" length="9.49" shape="289.76,665.30 293.22,674.13" speed="5.56"/>
   </edge>
   <edge function="internal" id=":1229126690_8">
      <lane allow="delivery bicycle pedestrian" id=":1229126690_8_0" index="0" length="4.82" shape="289.76,665.30 289.45,666.76 288.84,667.44 287.92,667.36 286.69,666.52" speed="5.56"/>
   </edge>
   <edge function="internal" id=":1229126693_0">
      <lane allow="delivery bicycle pedestrian" id=":1229126693_0_0" index="0" length="0.34" shape="41.39,399.17 41.07,399.30" speed="5.56"/>
   </edge>
   <edge function="internal" id=":1229126693_1">
      <lane allow="delivery bicycle pedestrian" id=":1229126693_1_0" index="0" length="2.41" shape="41.39,399.17 39.93,398.89 39.23,398.29" speed="5.56"/>
   </edge>
   <edge function="internal" id=":1229126693_4">
      <lane id=":1229126693_4_0" index="0" length="2.41" shape="39.23,398.29 39.29,397.37 40.12,396.13" speed="5.56"/>
   </edge>
   <edge function="internal" id=":1229126693_2">