<?xml version="1.0" encoding="utf-8"?><!-- generated on 10/11/17 17:58:01 by SUMO polyconvert Version 0.25.0
<?xml version="1.0" encoding="UTF-8"?>

<configuration xmlns:xsi="http://www.w3.org/2001/XMLSchema-instance" xsi:noNamespaceSchemaLocation="http://sumo.dlr.de/xsd/polyconvertConfiguration.xsd">

    <input>
        <net-file value="R_GewerbeP_industrial_800.net.xml"/>
        <osm-files value="R_GewerbeP_industrial_800.osm"/>
        <type-file value="osmPolyconvert.typ.xml"/>
    </input>

    <output>
        <output-file value="R_GewerbeP_industrial_800.poly.xml"/>
    </output>

    <projection>
        <proj.utm value="true"/>
    </projection>

    <processing>
        <poi-layer-offset value="5"/>
    </processing>

</configuration>
-->
<additional>
   <location convBoundary="-4.41,-11.73,817.24,807.25" netOffset="-289697.78,-5434322.31" origBoundary="12.123002,49.026033,12.133976,49.033229" projParameter="+proj=utm +zone=33 +ellps=WGS84 +datum=WGS84 +units=m +no_defs"/>
   <poly color="red" fill="1" id="100182592" layer="-1.00" shape="507.60,587.82 517.92,587.96 518.00,581.63 506.35,581.49 502.80,581.44 502.71,587.76 507.60,587.82" type="building"/>
   <poly color="184,184,179" fill="1" id="100182596" layer="-1.00" shape="86.96,456.94 87.05,461.72 81.65,461.83 82.31,497.33 91.78,497.15 91.90,503.45 131.35,502.71 131.13,491.22 130.48,456.12 86.96,456.94" type="parking"/>
   <poly color="209,209,204" fill="1" id="112770038" layer="-3.00" shape="29.68,18.53 223.54,18.57 213.10,20.23 220.20,57.89 43.91,94.74 29.68,18.53" type="commercial"/>
   <poly color="194,194,130" fill="0" id="112770040" layer="-3.00" shape="387.58,1.20 378.57,22.10 369.97,37.63 390.69,34.95" type="landuse"/>
   <poly color="red" fill="0" id="112770270" layer="-1.00" shape="1.88,108.60 7.61,101.54 3.85,78.20 -1.70,79.09 -2.42,74.67 3.23,73.76 1.66,63.99 -2.16,64.61 -3.18,58.20" type="building"/>
   <poly color="237,199,255" fill="0" id="112770270#1" layer="-1.00" shape="1.88,108.60 7.61,101.54 3.85,78.20 -1.70,79.09 -2.42,74.67 3.23,73.76 1.66,63.99 -2.16,64.61 -3.18,58.20" type="shop"/>
   <poly color="red" fill="1" id="112882576" layer="-1.00" shape="502.70,208.03 512.44,209.42 516.75,179.44 510.75,178.59 507.67,199.99 503.93,199.45 502.70,208.03" type="building"/>
   <poly color="red" fill="1" id="112882577" layer="-1.00" shape="535.02,208.84 535.99,197.39 546.98,198.31 547.14,200.53 546.42,209.80 535.02,208.84" type="building"/>
   <poly color="red" fill="1" id="112882578" layer="-1.00" shape="599.86,172.70 603.19,163.89 589.43,158.72 586.09,167.51 599.86,172.70" type="building"/>
   <poly color="red" fill="1" id="112882579" layer="-1.00" shape="730.08,208.88 727.92,215.09 719.83,212.29 722.00,206.08 724.59,206.97 730.08,208.88" type="building"/>
   <poly color="red" fill="1" id="112882580" layer="-1.00" shape="177.79,315.64 181.53,280.92 226.28,285.70 222.55,320.42 177.79,315.64" type="building"/>
   <poly color="red" fill="1" id="112882581" layer="-1.00" shape="79.22,302.51 87.43,302.42 87.35,295.21 76.65,295.31 76.70,300.23 79.19,300.20 79.22,302.51" type="building"/>
   <poly color="red" fill="1" id="112882582" layer="-1.00" shape="614.24,156.86 617.15,148.36 606.27,144.66 603.35,153.16 614.24,156.86" type="building"/>
   <poly color="red" fill="1" id="112882583" layer="-1.00" shape="689.08,234.11 690.89,228.93 683.74,226.45 681.93,231.64 686.31,233.15 689.08,234.11" type="building"/>
   <poly color="red" fill="1" id="112882584" layer="-1.00" shape="677.42,111.54 679.28,103.88 689.61,106.38 687.75,114.04 677.42,111.54" type="building"/>
   <poly color="red" fill="1" id="112882585" layer="-1.00" shape="737.82,535.14 738.06,529.12 725.81,528.62 725.56,534.64 737.82,535.14" type="building"/>
   <poly color="red" fill="1" id="112882586" layer="-1.00" shape="620.42,130.69 624.00,118.04 591.36,108.87 593.82,100.18 596.68,100.99 598.77,93.56 595.42,92.62 596.15,90.04 585.04,86.92 576.18,118.25 620.42,130.69" type="building"/>
   <poly color="red" fill="1" id="112882588" layer="-1.00" shape="660.82,116.49 640.38,110.95 635.48,128.94 641.80,130.66 643.76,123.48 657.87,127.30 660.82,116.49" type="building"/>
   <poly color="red" fill="1" id="112882589" layer="-1.00" shape="733.50,289.24 737.17,277.62 719.76,272.16 716.10,283.79 733.50,289.24" type="building"/>
   <poly color="red" fill="1" id="112882590" layer="-1.00" shape="547.14,200.53 553.76,200.09 552.84,186.11 546.22,186.55 546.98,198.31 547.14,200.53" type="building"/>
   <poly color="red" fill="1" id="112882591" layer="-1.00" shape="734.79,261.26 739.06,248.36 720.95,242.41 716.69,255.31 734.79,261.26" type="building"/>
   <poly color="red" fill="1" id="112882592" layer="-1.00" shape="564.12,268.59 576.78,270.51 578.95,256.36 566.29,254.44 564.12,268.59" type="building"/>
   <poly color="red" fill="1" id="112882593" layer="-1.00" shape="678.01,314.14 677.82,298.76 665.88,298.91 666.07,314.29 678.01,314.14" type="building"/>
   <poly color="red" fill="1" id="112882594" layer="-1.00" shape="566.58,344.20 547.12,339.85 544.88,349.81 554.26,351.92 553.50,355.33 563.57,357.59 566.58,344.20" type="building"/>
   <poly color="red" fill="1" id="112882595" layer="-1.00" shape="292.90,140.47 305.08,156.49 360.78,161.90 361.85,150.91 382.63,152.93 387.27,105.43 324.46,99.34 323.84,105.62 302.61,103.55 302.00,109.82 295.95,109.22 292.90,140.47" type="building"/>
   <poly color="237,199,255" fill="1" id="112882595#1" layer="-1.00" shape="292.90,140.47 305.08,156.49 360.78,161.90 361.85,150.91 382.63,152.93 387.27,105.43 324.46,99.34 323.84,105.62 302.61,103.55 302.00,109.82 295.95,109.22 292.90,140.47" type="shop"/>
   <poly color="red" fill="1" id="112882596" layer="-1.00" shape="729.60,189.94 742.39,194.36 745.93,184.15 733.29,179.80 731.13,185.88 729.60,189.94" type="building"/>
   <poly color="red" fill="1" id="112882597" layer="-1.00" shape="235.64,207.09 234.34,224.56 233.11,241.11 258.93,243.01 259.31,237.98 260.74,218.73 261.31,211.17 261.47,209.00 235.64,207.09" type="building"/>
   <poly color="237,199,255" fill="1" id="112882597#1" layer="-1.00" shape="235.64,207.09 234.34,224.56 233.11,241.11 258.93,243.01 259.31,237.98 260.74,218.73 261.31,211.17 261.47,209.00 235.64,207.09" type="shop"/>
   <poly color="red" fill="1" id="112882598" layer="-1.00" shape="722.51,230.61 726.05,217.98 744.14,223.03 740.60,235.65 722.51,230.61" type="building"/>
   <poly color="red" fill="1" id="112882599" layer="-1.00" shape="560.24,244.02 562.08,233.28 555.28,232.12 553.45,242.88 560.24,244.02" type="building"/>
   <poly color="red" fill="1" id="112882600" layer="-1.00" shape="637.66,85.69 641.32,70.79 634.49,69.12 630.82,84.02 637.66,85.69" type="building"/>
   <poly color="red" fill="1" id="112882601" layer="-1.00" shape="91.06,339.23 90.76,329.81 78.01,330.21 78.31,339.64 91.06,339.23" type="building"/>
   <poly color="red" fill="1" id="112882602" layer="-1.00" shape="707.36,186.19 711.39,172.87 693.04,167.35 689.01,180.66 707.36,186.19" type="building"/>
   <poly color="red" fill="1" id="112882603" layer="-1.00" shape="646.38,103.81 650.17,88.43 675.59,94.66 677.18,95.05 675.71,101.04 673.40,110.43 646.38,103.81" type="building"/>
   <poly color="237,199,255" fill="1" id="112882603#1" layer="-1.00" shape="646.38,103.81 650.17,88.43 675.59,94.66 677.18,95.05 675.71,101.04 673.40,110.43 646.38,103.81" type="shop"/>
   <poly color="red" fill="1" id="112882604" layer="-1.00" shape="589.75,360.86 593.71,341.10 617.43,345.80 614.63,359.83 616.24,360.14 615.09,365.88 589.75,360.86" type="building"/>
   <poly color="red" fill="1" id="112882605" layer="-1.00" shape="718.04,133.53 721.51,121.43 702.90,115.73 699.04,127.66 718.04,133.53" type="building"/>
   <poly color="red" fill="1" id="112882606" layer="-1.00" shape="526.10,346.37 526.42,342.09 528.62,342.26 529.40,331.89 523.96,331.49 524.14,329.05 519.20,328.68 519.01,331.12 514.34,330.78 513.56,341.15 515.24,341.26 514.92,345.55 526.10,346.37" type="building"/>
   <poly color="red" fill="1" id="112882607" layer="-1.00" shape="496.29,114.84 501.48,79.40 494.67,78.40 489.47,113.84 496.29,114.84" type="building"/>
   <poly color="red" fill="1" id="112882608" layer="-1.00" shape="750.67,622.09 744.63,621.93 744.09,641.63 750.13,641.79 750.67,622.09" type="building"/>
   <poly color="red" fill="1" id="112882609" layer="-1.00" shape="314.79,294.77 332.39,297.11 333.74,287.08 316.13,284.73 314.79,294.77" type="building"/>
   <poly color="red" fill="1" id="112882610" layer="-1.00" shape="645.54,333.98 646.30,337.38 630.16,340.94 627.61,329.42 643.74,325.86 645.54,333.98" type="building"/>
   <poly color="red" fill="1" id="112882611" layer="-1.00" shape="527.99,205.12 528.89,198.96 523.13,198.12 522.23,204.29 527.99,205.12" type="building"/>
   <poly color="red" fill="1" id="112882612" layer="-1.00" shape="598.64,188.03 601.80,178.48 590.34,174.73 588.62,179.96 584.42,178.58 582.99,182.91 598.64,188.03" type="building"/>
   <poly color="red" fill="1" id="112882613" layer="-1.00" shape="731.13,185.88 725.18,183.67 722.42,191.06 728.36,193.26 729.60,189.94 731.13,185.88" type="building"/>
   <poly color="red" fill="1" id="112882614" layer="-1.00" shape="139.11,268.70 171.17,272.24 180.19,191.34 148.13,187.79 139.11,268.70" type="building"/>
   <poly color="red" fill="1" id="112882615" layer="-1.00" shape="590.69,311.00 594.34,293.91 601.76,295.49 598.10,312.58 595.02,311.92 590.69,311.00" type="building"/>
   <poly color="red" fill="1" id="112882616" layer="-1.00" shape="675.59,94.66 677.43,87.20 688.33,89.87 685.02,103.31 675.71,101.04 677.18,95.05 675.59,94.66" type="building"/>
   <poly color="red" fill="1" id="112882617" layer="-1.00" shape="749.34,594.74 749.03,606.03 756.01,606.21 756.37,592.94 749.39,592.76 749.34,594.74" type="building"/>
   <poly color="red" fill="1" id="112882618" layer="-1.00" shape="698.16,342.11 696.66,330.62 684.52,332.21 686.02,343.68 698.16,342.11" type="building"/>
   <poly color="red" fill="1" id="112882619" layer="-1.00" shape="417.75,151.74 392.91,149.33 391.01,168.65 415.86,171.06 417.75,151.74" type="building"/>
   <poly color="red" fill="1" id="112882620" layer="-1.00" shape="799.38,230.96 799.03,250.56 791.83,250.45 792.18,230.84 799.38,230.96" type="building"/>
   <poly color="red" fill="1" id="112882621" layer="-1.00" shape="407.56,289.95 413.37,225.65 401.73,224.60 400.98,232.86 383.55,231.29 378.48,287.34 407.56,289.95" type="building"/>
   <poly color="red" fill="1" id="112882622" layer="-1.00" shape="744.20,175.19 747.67,164.86 736.59,161.16 735.30,165.92 733.10,171.48 744.20,175.19" type="building"/>
   <poly color="red" fill="1" id="112882623" layer="-1.00" shape="534.59,315.01 535.88,302.49 522.04,301.08 520.75,313.59 534.59,315.01" type="building"/>
   <poly color="red" fill="1" id="112882624" layer="-1.00" shape="592.80,212.03 582.64,208.93 582.20,210.64 580.16,217.05 590.31,220.13 592.80,212.03" type="building"/>
   <poly color="red" fill="1" id="112882625" layer="-1.00" shape="604.33,299.30 610.09,267.96 597.74,264.62 600.38,254.90 628.04,262.84 625.45,272.09 619.25,301.85 604.33,299.30" type="building"/>
   <poly color="red" fill="1" id="112882626" layer="-1.00" shape="540.49,237.22 541.11,226.52 527.27,225.73 526.66,236.43 540.49,237.22" type="building"/>
   <poly color="red" fill="1" id="112882627" layer="-1.00" shape="300.73,323.68 301.46,315.59 288.50,314.43 287.76,322.53 300.73,323.68" type="building"/>
   <poly color="red" fill="1" id="112882628" layer="-1.00" shape="661.58,330.67 655.91,303.44 639.73,306.78 643.74,325.86 645.54,333.98 661.58,330.67" type="building"/>
   <poly color="red" fill="1" id="112882629" layer="-1.00" shape="655.02,71.12 656.71,61.37 647.16,59.73 645.47,69.48 655.02,71.12" type="building"/>
   <poly color="red" fill="1" id="112882630" layer="-1.00" shape="384.60,326.97 404.28,328.92 406.64,305.16 386.97,303.22 384.60,326.97" type="building"/>
   <poly color="red" fill="1" id="112882631" layer="-1.00" shape="744.49,90.92 748.80,71.37 736.72,68.73 732.42,88.28 744.49,90.92" type="building"/>
   <poly color="red" fill="1" id="112882632" layer="-1.00" shape="736.59,161.16 737.92,156.34 732.22,154.78 729.59,164.37 735.30,165.92 736.59,161.16" type="building"/>
   <poly color="red" fill="1" id="112882634" layer="-1.00" shape="499.53,339.24 503.09,313.83 504.79,314.06 507.65,293.53 506.71,293.40 510.19,268.47 513.15,268.88 517.38,238.61 489.72,234.77 485.49,265.04 471.04,263.04 467.55,287.97 479.47,289.62 476.61,310.15 474.87,309.92 471.32,335.33 499.53,339.24" type="building"/>
   <poly color="red" fill="1" id="112882636" layer="-1.00" shape="103.72,290.53 112.32,290.62 112.40,282.58 103.81,282.50 103.72,290.53" type="building"/>
   <poly color="red" fill="1" id="112882637" layer="-1.00" shape="751.95,513.99 752.23,495.39 740.87,495.22 740.59,513.82 751.95,513.99" type="building"/>
   <poly color="red" fill="1" id="112882638" layer="-1.00" shape="126.75,191.60 111.59,192.14 116.66,336.88 137.99,336.13 136.10,282.05 129.93,282.26 126.75,191.60" type="building"/>
   <poly color="237,199,255" fill="1" id="112882638#1" layer="-1.00" shape="126.75,191.60 111.59,192.14 116.66,336.88 137.99,336.13 136.10,282.05 129.93,282.26 126.75,191.60" type="shop"/>
   <poly color="red" fill="0" id="112882639" layer="-1.00" shape="793.60,192.04 792.92,214.95 799.55,215.16" type="building"/>
   <poly color="red" fill="1" id="112882640" layer="-1.00" shape="485.42,203.23 489.14,180.23 479.45,178.67 475.73,201.69 485.42,203.23" type="building"/>
   <poly color="red" fill="1" id="112882641" layer="-1.00" shape="671.27,174.29 674.75,161.18 648.40,154.24 644.93,167.35 671.27,174.29" type="building"/>
   <poly color="red" fill="1" id="112882642" layer="-1.00" shape="745.07,581.02 744.71,594.63 749.34,594.74 749.39,592.76 756.37,592.94 756.67,581.33 745.07,581.02" type="building"/>
   <poly color="red" fill="1" id="112882643" layer="-1.00" shape="691.37,357.16 690.14,347.30 701.37,345.90 702.59,355.78 691.37,357.16" type="building"/>
   <poly color="red" fill="1" id="112882644" layer="-1.00" shape="642.41,367.51 640.10,355.23 625.80,357.92 628.12,370.19 642.41,367.51" type="building"/>
   <poly color="red" fill="1" id="112882646" layer="-1.00" shape="624.75,204.94 610.98,200.41 603.43,223.21 617.19,227.74 624.75,204.94" type="building"/>
   <poly color="red" fill="1" id="112882647" layer="-1.00" shape="600.76,280.70 602.63,271.41 592.39,269.38 590.52,278.66 600.76,280.70" type="building"/>
   <poly color="red" fill="1" id="112882648" layer="-1.00" shape="712.04,286.36 698.24,281.01 694.89,289.60 698.91,291.15 695.79,299.17 705.57,302.96 712.04,286.36" type="building"/>
   <poly color="red" fill="1" id="112882649" layer="-1.00" shape="551.58,319.98 552.75,314.28 545.32,312.77 544.15,318.46 551.58,319.98" type="building"/>
   <poly color="red" fill="1" id="112882650" layer="-1.00" shape="672.62,359.53 685.24,357.71 684.13,348.67 671.40,350.64 672.62,359.53" type="building"/>
   <poly color="red" fill="1" id="112882652" layer="-1.00" shape="278.45,250.28 279.15,240.99 268.11,240.17 268.23,238.63 259.31,237.98 258.93,243.01 258.40,250.07 263.64,250.45 263.73,249.19 278.45,250.28" type="building"/>
   <poly color="red" fill="1" id="112882653" layer="-1.00" shape="660.41,237.65 663.69,224.32 680.47,228.42 677.19,241.75 660.41,237.65" type="building"/>
   <poly color="red" fill="1" id="112882654" layer="-1.00" shape="622.01,251.44 623.40,246.19 616.28,244.32 614.89,249.57 622.01,251.44" type="building"/>
   <poly color="red" fill="1" id="112882656" layer="-1.00" shape="653.96,266.21 656.93,255.01 671.65,258.89 668.68,270.08 653.96,266.21" type="building"/>
   <poly color="red" fill="1" id="112882658" layer="-1.00" shape="799.55,215.16 799.38,230.96 792.18,230.84 792.92,214.95 799.55,215.16" type="building"/>
   <poly color="red" fill="1" id="112882661" layer="-1.00" shape="684.13,348.67 682.57,338.62 669.84,340.61 671.40,350.64 684.13,348.67" type="building"/>
   <poly color="red" fill="1" id="112882662" layer="-1.00" shape="356.01,324.36 356.38,318.30 349.13,317.87 348.75,323.92 356.01,324.36" type="building"/>
   <poly color="red" fill="1" id="112882663" layer="-1.00" shape="497.60,173.58 499.93,159.48 516.42,162.18 514.10,176.28 497.60,173.58" type="building"/>
   <poly color="red" fill="1" id="112882664" layer="-1.00" shape="455.07,255.33 461.68,203.88 448.90,202.25 442.30,253.70 455.07,255.33" type="building"/>
   <poly color="red" fill="1" id="112882665" layer="-1.00" shape="591.16,153.06 594.96,141.11 584.88,137.92 581.07,149.87 591.16,153.06" type="building"/>
   <poly color="red" fill="1" id="112882666" layer="-1.00" shape="92.08,281.23 105.05,280.90 104.69,265.63 91.70,265.95 92.08,281.23" type="building"/>
   <poly color="red" fill="1" id="112882667" layer="-1.00" shape="750.06,407.45 731.26,398.58 726.58,408.44 745.38,417.31 750.06,407.45" type="building"/>
   <poly color="red" fill="1" id="112882668" layer="-1.00" shape="617.56,144.11 619.87,137.26 614.54,135.47 612.23,142.30 617.56,144.11" type="building"/>
   <poly color="red" fill="1" id="112882669" layer="-1.00" shape="94.28,225.60 105.17,225.01 104.21,207.63 93.32,208.23 94.28,225.60" type="building"/>
   <poly color="red" fill="1" id="112882671" layer="-1.00" shape="714.70,294.98 730.31,301.48 726.64,310.21 711.04,303.71 714.70,294.98" type="building"/>
   <poly color="red" fill="1" id="112882672" layer="-1.00" shape="749.11,153.30 752.80,142.34 739.26,137.81 735.58,148.77 749.11,153.30" type="building"/>
   <poly color="red" fill="1" id="112882673" layer="-1.00" shape="720.40,105.85 724.05,93.02 701.80,86.75 698.17,99.57 720.40,105.85" type="building"/>
   <poly color="red" fill="1" id="112882674" layer="-1.00" shape="743.43,273.80 745.12,267.81 738.20,265.88 736.51,271.87 743.43,273.80" type="building"/>
   <poly color="red" fill="1" id="112882676" layer="-1.00" shape="627.78,196.49 632.47,182.09 619.61,177.93 614.92,192.33 627.78,196.49" type="building"/>
   <poly color="red" fill="1" id="112882677" layer="-1.00" shape="719.95,240.76 722.90,231.26 711.15,227.65 708.21,237.16 719.95,240.76" type="building"/>
   <poly color="red" fill="1" id="112882678" layer="-1.00" shape="567.42,321.18 571.42,304.53 559.04,301.58 555.04,318.23 567.42,321.18" type="building"/>
   <poly color="red" fill="1" id="112882679" layer="-1.00" shape="649.73,362.38 665.31,361.05 664.27,348.98 648.69,350.32 649.73,362.38" type="building"/>
   <poly color="red" fill="1" id="112882680" layer="-1.00" shape="281.20,215.38 281.93,205.59 271.33,204.80 270.60,214.60 281.20,215.38" type="building"/>
   <poly color="red" fill="1" id="112882681" layer="-1.00" shape="636.25,230.66 640.17,216.10 658.79,221.08 654.86,235.65 636.25,230.66" type="building"/>
   <poly color="red" fill="1" id="112882682" layer="-1.00" shape="738.21,211.56 741.95,199.55 728.23,195.29 724.59,206.97 730.08,208.88 738.21,211.56" type="building"/>
   <poly color="red" fill="1" id="112882683" layer="-1.00" shape="610.34,251.33 612.95,241.11 600.09,237.85 597.48,248.07 610.34,251.33" type="building"/>
   <poly color="red" fill="1" id="112882684" layer="-1.00" shape="79.39,317.44 79.22,302.51 79.19,300.20 76.70,300.23 70.01,300.31 70.21,317.54 79.39,317.44" type="building"/>
   <poly color="red" fill="1" id="112882685" layer="-1.00" shape="537.47,283.50 538.33,271.25 524.72,270.31 523.87,282.57 537.47,283.50" type="building"/>
   <poly color="red" fill="1" id="112882686" layer="-1.00" shape="714.03,162.76 717.98,149.97 699.41,144.26 695.45,157.05 714.03,162.76" type="building"/>
   <poly color="red" fill="1" id="112882687" layer="-1.00" shape="683.42,242.57 686.31,233.15 689.08,234.11 697.43,236.79 694.63,245.96 683.42,242.57" type="building"/>
   <poly color="red" fill="1" id="112882689" layer="-1.00" shape="582.64,208.93 583.71,204.80 576.59,202.98 575.09,208.81 582.20,210.64 582.64,208.93" type="building"/>
   <poly color="red" fill="1" id="112882690" layer="-1.00" shape="645.33,260.81 648.42,250.11 634.58,246.15 631.49,256.84 645.33,260.81" type="building"/>
   <poly color="237,199,199" fill="1" id="112882691" layer="-1.00" shape="501.35,141.41 516.41,144.19 522.12,113.51 507.07,110.73 501.35,141.41" type="amenity"/>
   <poly color="red" fill="1" id="112882691#1" layer="-1.00" shape="501.35,141.41 516.41,144.19 522.12,113.51 507.07,110.73 501.35,141.41" type="building"/>
   <poly color="red" fill="1" id="112882692" layer="-1.00" shape="592.44,323.96 595.02,311.92 590.69,311.00 583.92,309.63 581.35,321.60 590.92,323.64 592.44,323.96" type="building"/>
   <poly color="red" fill="1" id="112882693" layer="-1.00" shape="575.26,278.49 562.06,275.28 557.05,295.67 562.75,297.07 564.20,291.16 571.70,293.00 575.26,278.49" type="building"/>
   <poly color="red" fill="1" id="112882696" layer="-1.00" shape="307.90,272.26 309.67,250.70 295.56,249.55 293.79,271.11 307.90,272.26" type="building"/>
   <poly color="red" fill="1" id="112882698" layer="-1.00" shape="675.07,269.78 678.35,260.25 688.91,263.85 684.36,277.08 678.47,275.07 679.74,271.37 675.07,269.78" type="building"/>
   <poly color="red" fill="1" id="112882700" layer="-1.00" shape="558.33,142.86 561.92,124.59 547.11,121.71 543.52,139.97 558.33,142.86" type="building"/>
   <poly color="red" fill="1" id="113310963" layer="-1.00" shape="8.28,393.89 40.86,393.60 42.03,525.80 33.68,525.87 33.74,532.32 17.93,532.47 18.04,543.83 8.28,393.89" type="building"/>
   <poly color="red" fill="1" id="113310963#1" layer="-1.00" shape="8.28,393.89 40.86,393.60 42.03,525.80 33.68,525.87 33.74,532.32 17.93,532.47 18.04,543.83 8.28,393.89" type="building"/>
   <poly color="237,199,199" fill="1" id="113310985" layer="-1.00" shape="19.88,715.02 20.71,661.10 31.87,661.26 31.74,669.78 37.81,669.88 37.65,680.19 31.57,680.10 31.47,687.15 37.54,687.24 37.38,697.96 31.30,697.87 31.19,705.03 37.26,705.12 37.11,715.28 31.04,715.19 31.00,717.75 29.68,717.72 29.72,715.17 19.88,715.02" type="amenity"/>
   <poly color="red" fill="1" id="113310985#1" layer="-1.00" shape="19.88,715.02 20.71,661.10 31.87,661.26 31.74,669.78 37.81,669.88 37.65,680.19 31.57,680.10 31.47,687.15 37.54,687.24 37.38,697.96 31.30,697.87 31.19,705.03 37.26,705.12 37.11,715.28 31.04,715.19 31.00,717.75 29.68,717.72 29.72,715.17 19.88,715.02" type="building"/>
   <poly color="red" fill="0" id="113545404" layer="-1.00" shape="200.14,781.04 189.34,781.56" type="building"/>
   <poly color="red" fill="1" id="113545407" layer="-1.00" shape="125.34,714.33 125.07,708.92 102.65,710.01 102.91,715.42 125.34,714.33" type="building"/>
   <poly color="red" fill="1" id="113545410" layer="-1.00" shape="112.58,797.79 99.68,798.44 112.58,797.79" type="building"/>
   <poly color="red" fill="1" id="113545412" layer="-1.00" shape="84.41,709.40 82.86,669.29 94.70,668.84 95.05,677.87 98.51,677.72 98.65,681.46 95.19,681.59 95.78,696.86 99.24,696.73 99.39,700.60 95.93,700.73 96.24,708.95 84.41,709.40" type="building"/>
   <poly color="red" fill="1" id="113545413" layer="-1.00" shape="172.52,761.82 173.23,775.90 163.22,776.40 163.37,779.62 158.33,779.88 158.17,776.66 149.39,777.10 148.67,763.03 172.52,761.82" type="building"/>
   <poly color="red" fill="1" id="113545416" layer="-1.00" shape="220.58,749.11 220.33,744.27 251.47,742.63 251.72,747.47 220.58,749.11" type="building"/>
   <poly color="red" fill="1" id="113545419" layer="-1.00" shape="429.49,795.97 429.23,790.56 376.29,793.09 376.55,798.50 429.49,795.97" type="building"/>
   <poly color="red" fill="1" id="113545421" layer="-1.00" shape="269.68,782.09 269.35,776.21 325.47,773.03 325.80,778.92 269.68,782.09" type="building"/>
   <poly color="red" fill="1" id="113545425" layer="-1.00" shape="129.08,725.36 135.00,724.99 138.46,780.48 132.54,780.84 129.08,725.36" type="building"/>
   <poly color="red" fill="1" id="113545443" layer="-1.00" shape="149.47,758.17 159.29,757.67 158.16,735.44 148.34,735.95 149.47,758.17" type="building"/>
   <poly color="red" fill="1" id="113545444" layer="-1.00" shape="247.41,752.76 236.33,753.34 247.41,752.76" type="building"/>
   <poly color="red" fill="1" id="113545446" layer="-1.00" shape="127.32,703.41 127.06,698.35 128.94,698.24 128.75,694.66 148.35,693.62 148.51,696.53 169.50,695.42 169.98,704.60 160.49,705.10 160.65,708.20 156.93,708.40 156.77,705.30 149.18,705.70 149.00,702.27 139.71,702.75 139.87,705.90 136.30,706.09 136.14,702.94 127.32,703.41" type="building"/>
   <poly color="red" fill="1" id="113545453" layer="-1.00" shape="98.65,744.89 87.03,745.56 89.37,786.56 101.00,785.90 100.53,777.83 103.67,777.66 103.45,773.98 100.33,774.17 99.41,758.14 102.54,757.96 102.34,754.42 99.21,754.60 98.65,744.89" type="building"/>
   <poly color="red" fill="1" id="129439568" layer="-1.00" shape="111.80,165.43 131.78,161.31 125.91,132.95 105.93,137.06 111.80,165.43" type="building"/>
   <poly color="237,199,255" fill="1" id="129439568#1" layer="-1.00" shape="111.80,165.43 131.78,161.31 125.91,132.95 105.93,137.06 111.80,165.43" type="shop"/>
   <poly color="184,184,179" fill="1" id="129439579" layer="-1.00" shape="230.33,112.74 263.36,108.50 295.95,109.22 292.90,140.47 292.18,147.79 287.49,147.33 284.49,178.09 224.75,172.29 230.33,112.74" type="parking"/>
   <poly color="184,184,179" fill="1" id="134564812" layer="-1.00" shape="245.22,592.37 310.11,592.66 309.57,617.04 245.20,599.51 245.22,592.37" type="parking"/>
   <poly color="184,184,179" fill="1" id="134564816" layer="-1.00" shape="506.93,487.59 509.36,476.84 552.00,486.41 549.57,497.16 506.93,487.59" type="parking"/>
   <poly color="184,184,179" fill="1" id="134564817" layer="-1.00" shape="317.29,467.25 367.99,467.66 368.10,453.79 317.41,453.38 317.29,467.25" type="parking"/>
   <poly color="184,184,179" fill="1" id="134564820" layer="-1.00" shape="231.90,588.93 233.41,469.14 224.06,469.11 221.15,509.64 220.79,532.07 223.55,588.56 231.90,588.93" type="parking"/>
   <poly color="184,184,179" fill="1" id="134564821" layer="-1.00" shape="315.77,619.28 315.87,606.80 380.67,607.32 380.53,624.29 350.52,624.05 350.56,619.56 315.77,619.28" type="parking"/>
   <poly color="184,184,179" fill="1" id="134564822" layer="-1.00" shape="272.07,466.13 236.99,465.87 237.11,450.66 272.19,450.92 272.10,463.10 272.07,466.13" type="parking"/>
   <poly color="184,184,179" fill="1" id="134824450" layer="-1.00" shape="187.94,504.19 188.10,498.81 190.54,498.87 190.87,487.42 205.86,487.84 205.70,493.47 202.04,493.36 201.73,504.58 187.94,504.19" type="parking"/>
   <poly color="184,184,179" fill="1" id="134824451" layer="-1.00" shape="193.73,433.74 201.86,449.96 217.29,442.26 214.78,437.23 217.51,435.86 211.90,424.67 193.73,433.74" type="parking"/>
   <poly color="red" fill="1" id="140435538" layer="-1.00" shape="112.48,35.60 41.64,50.23 49.91,90.09 120.74,75.47 116.65,55.76 112.48,35.60" type="building"/>
   <poly color="209,209,204" fill="0" id="140435539" layer="-3.00" shape="579.74,3.40 580.51,7.95 636.79,-1.45" type="commercial"/>
   <poly color="209,209,204" fill="1" id="140435542" layer="-3.00" shape="369.40,329.91 395.87,84.80 229.92,110.23 127.57,129.47 49.49,144.27 59.60,202.37 61.13,214.59 61.57,234.31 111.95,232.47 116.19,341.33 175.71,337.99 266.83,326.10 300.25,325.54 333.81,326.72 369.40,329.91" type="commercial"/>
   <poly color="184,184,179" fill="1" id="146895195" layer="-1.00" shape="183.24,678.64 136.21,663.92 135.70,633.63 181.91,633.72 182.12,638.72 183.24,678.64" type="parking"/>
   <poly color="red" fill="1" id="163093363" layer="-1.00" shape="603.65,74.88 614.01,78.04 615.63,72.74 605.27,69.60 603.65,74.88" type="building"/>
   <poly color="237,199,255" fill="1" id="163093363#1" layer="-1.00" shape="603.65,74.88 614.01,78.04 615.63,72.74 605.27,69.60 603.65,74.88" type="shop"/>
   <poly color="209,209,204" fill="1" id="163093376" layer="-3.00" shape="580.16,52.69 620.20,48.60 644.06,53.99 655.10,55.20 689.70,53.69 673.92,115.56 630.64,103.84 634.67,88.46 575.51,71.72 580.16,52.69" type="commercial"/>
   <poly color="140,196,107" fill="0" id="170947141" layer="-4.00" shape="810.07,372.04 790.37,54.67 791.48,6.24" type="forest"/>
   <poly color="184,184,179" fill="0" id="17742229" layer="-1.00" shape="169.53,58.78 171.82,58.33 173.14,64.87 150.25,69.38 146.15,49.66 116.65,55.76 112.48,35.60 41.64,50.23 34.28,20.79" type="parking"/>
   <poly color="209,209,204" fill="1" id="189893093" layer="-3.00" shape="571.73,791.29" type="commercial"/>
   <poly color="194,194,130" fill="0" id="20615174" layer="-3.00" shape="815.61,698.65 799.96,741.03" type="landuse"/>
   <poly color="140,196,107" fill="0" id="20615174#1" layer="-4.00" shape="815.61,698.65 799.96,741.03" type="natural"/>
   <poly color="red" fill="1" id="211531919" layer="-1.00" shape="792.41,450.58 809.52,450.73 809.71,428.78 792.59,428.64 792.41,450.58" type="building"/>
   <poly color="209,209,204" fill="0" id="215303037" layer="-3.00" shape="792.04,500.61 792.41,450.58 792.59,428.64 809.71,428.78" type="commercial"/>
   <poly color="209,209,204" fill="0" id="215303038" layer="-3.00" shape="636.79,-1.45 642.76,3.03" type="commercial"/>
   <poly color="184,184,179" fill="1" id="229637030" layer="-1.00" shape="649.12,778.67 648.58,715.34 652.30,715.30 652.84,778.64 649.12,778.67" type="parking"/>
   <poly color="184,184,179" fill="1" id="229637031" layer="-1.00" shape="499.57,697.02 509.17,699.27 511.19,690.72 501.59,688.47 499.57,697.02" type="parking"/>
   <poly color="209,209,204" fill="1" id="23628595" layer="-3.00" shape="321.42,351.77 391.67,356.71 425.46,359.17 470.74,366.84 626.08,400.20 656.50,463.91 675.92,498.71 699.03,541.66 715.16,579.59 718.01,611.84 711.22,641.66 708.19,643.41 703.08,644.19 699.66,725.94 702.18,729.32 703.69,733.76 571.73,791.29 221.91,693.58 221.44,682.43 220.76,666.64 219.42,634.90 219.34,633.04 181.91,633.72 182.12,638.72 183.24,678.64 183.37,683.52 183.44,688.43 134.11,673.46 133.79,619.36 72.71,622.08 76.30,375.75 236.89,354.09 279.25,351.23 321.42,351.77" type="commercial"/>