<?xml version="1.0" encoding="utf-8"?><!-- generated on 10/11/17 17:57:52 by SUMO netconvert Version 0.25.0
<?xml version="1.0" encoding="UTF-8"?>

<configuration xmlns:xsi="http://www.w3.org/2001/XMLSchema-instance" xsi:noNamespaceSchemaLocation="http://sumo.dlr.de/xsd/netconvertConfiguration.xsd">

    <input>
        <type-files value="osmNetconvert.typ.xml"/>
        <osm-files value="R_GewerbeP_industrial_800.osm"/>
    </input>

    <output>
        <output-file value="R_GewerbeP_industrial_800.net.xml"/>
    </output>

    <projection>
        <proj.utm value="true"/>
    </projection>

    <edge_removal>
        <remove-edges.by-type value="highway.track,highway.unsurfaced,highway.raceway,highway.bridleway,highway.path,highway.footway,highway.pedestrian,highway.cycleway,highway.step,highway.steps,highway.stairs,highway.bus_guideway,highway.ford,railway.rail,railway.tram,railway.light_rail,railway.subway,railway.preserved,railway.narrow_gauge,railway.monorail,railway.funicular"/>
    </edge_removal>

</configuration>
-->
<net version="0.25">
   <location convBoundary="0.00,0.00,812.23,792.63" netOffset="-289697.78,-5434322.31" origBoundary="12.123015,49.026033,12.133975,49.033229" projParameter="+proj=utm +zone=33 +ellps=WGS84 +datum=WGS84 +units=m +no_defs"/>
   <type allow="pedestrian" id="highway.bridleway" numLanes="1" oneway="1" priority="1" speed="2.78" width="2.00"/>
   <type allow="bus" id="highway.bus_guideway" numLanes="1" oneway="1" priority="1" speed="8.33"/>
   <type allow="bicycle" id="highway.cycleway" numLanes="1" oneway="0" priority="1" speed="5.56" width="1.00"/>
   <type allow="pedestrian" id="highway.footway" numLanes="1" oneway="1" priority="1" speed="8.33" width="2.00"/>
   <type allow="army" id="highway.ford" numLanes="1" oneway="0" priority="1" speed="2.78"/>
   <type disallow="tram rail_urban rail rail_electric ship" id="highway.living_street" numLanes="1" oneway="0" priority="3" speed="2.78"/>
   <type allow="private emergency authority army vip passenger hov taxi bus coach delivery truck trailer motorcycle evehicle custom1 custom2" id="highway.motorway" numLanes="2" oneway="1" priority="13" speed="44.44"/>
   <type allow="private emergency authority army vip passenger hov taxi bus coach delivery truck trailer motorcycle evehicle custom1 custom2" id="highway.motorway_link" numLanes="1" oneway="1" priority="12" speed="22.22"/>
   <type allow="bicycle pedestrian" id="highway.path" numLanes="1" oneway="1" priority="1" speed="2.78" width="2.00"/>
   <type allow="pedestrian" id="highway.pedestrian" numLanes="1" oneway="1" priority="1" speed="8.33" width="2.00"/>
   <type disallow="tram rail_urban rail rail_electric ship" id="highway.primary" numLanes="2" oneway="0" priority="9" speed="27.78"/>
   <type disallow="tram rail_urban rail rail_electric ship" id="highway.primary_link" numLanes="1" oneway="0" priority="8" speed="22.22"/>
   <type allow="vip" id="highway.raceway" numLanes="2" oneway="0" priority="14" speed="83.33"/>
   <type disallow="tram rail_urban rail rail_electric ship" id="highway.residential" numLanes="1" oneway="0" priority="4" speed="13.89"/>
   <type disallow="tram rail_urban rail rail_electric ship" id="highway.secondary" numLanes="2" oneway="0" priority="7" speed="27.78"/>
   <type disallow="tram rail_urban rail rail_electric ship" id="highway.secondary_link" numLanes="1" oneway="0" priority="6" speed="22.22"/>
   <type allow="delivery bicycle pedestrian" id="highway.service" numLanes="1" oneway="0" priority="2" speed="5.56"/>
   <type disallow="tram rail_urban rail rail_electric ship" id="highway.services" numLanes="1" oneway="0" priority="1" speed="8.33"/>
   <type allow="pedestrian" id="highway.stairs" numLanes="1" oneway="1" priority="1" speed="1.39" width="2.00"/>
   <type allow="pedestrian" id="highway.step" numLanes="1" oneway="1" priority="1" speed="1.39" width="2.00"/>
   <type allow="pedestrian" id="highway.steps" numLanes="1" oneway="1" priority="1" speed="1.39" width="2.00"/>
   <type disallow="tram rail_urban rail rail_electric ship" id="highway.tertiary" numLanes="1" oneway="0" priority="6" speed="22.22"/>
   <type disallow="tram rail_urban rail rail_electric ship" id="highway.tertiary_link" numLanes="1" oneway="0" priority="5" speed="22.22"/>
   <type disallow="tram rail_urban rail rail_electric ship" id="highway.track" numLanes="1" oneway="0" priority="1" speed="5.56"/>
   <type disallow="tram rail_urban rail rail_electric bicycle pedestrian ship" id="highway.trunk" numLanes="2" oneway="0" priority="11" speed="27.78"/>
   <type disallow="tram rail_urban rail rail_electric bicycle pedestrian ship" id="highway.trunk_link" numLanes="1" oneway="0" priority="10" speed="22.22"/>
   <type disallow="tram rail_urban rail rail_electric ship" id="highway.unclassified" numLanes="1" oneway="0" priority="5" speed="13.89"/>
   <type disallow="tram rail_urban rail rail_electric ship" id="highway.unsurfaced" numLanes="1" oneway="0" priority="1" speed="8.33"/>
   <type allow="rail_urban" id="railway.light_rail" numLanes="1" oneway="1" priority="15" speed="27.78"/>
   <type allow="rail" id="railway.preserved" numLanes="1" oneway="1" priority="15" speed="27.78"/>
   <type allow="rail rail_electric" id="railway.rail" numLanes="1" oneway="1" priority="15" speed="83.33"/>
   <type allow="rail_urban" id="railway.subway" numLanes="1" oneway="1" priority="15" speed="27.78"/>
   <type allow="tram" id="railway.tram" numLanes="1" oneway="1" priority="15" speed="13.89"/>
   <edge function="internal" id=":1072755085_0">
      <lane disallow="tram rail_urban rail rail_electric ship" id=":1072755085_0_0" index="0" length="8.75" shape="242.24,343.50 233.71,344.55" speed="13.89"/>
      <lane disallow="tram rail_urban rail rail_electric ship" id=":1072755085_0_1" index="1" length="8.75" shape="241.94,340.21 233.11,341.31" speed="13.89"/>
   </edge>
   <edge function="internal" id=":1072755085_2">
      <lane allow="delivery bicycle pedestrian" id=":1072755085_2_0" index="0" length="4.93" shape="241.94,340.21 238.57,339.94 237.28,339.08" speed="9.72"/>
   </edge>
   <edge function="internal" id=":1072755085_3">
      <lane disallow="tram rail_urban rail rail_electric ship" id=":1072755085_3_0" index="0" length="2.41" shape="241.94,340.21 240.63,339.50 240.14,338.72" speed="13.89"/>
   </edge>
   <edge function="internal" id=":1072755085_11">
      <lane id=":1072755085_11_0" index="0" length="8.42" shape="237.28,339.08 236.25,338.39 235.01,335.57 234.82,331.47" speed="9.72"/>
   </edge>
   <edge function="internal" id=":1072755085_12">
      <lane id=":1072755085_12_0" index="0" length="2.41" shape="240.14,338.72 240.48,337.86 241.63,336.92" speed="13.89"/>
   </edge>
   <edge function="internal" id=":1072755085_4">
      <lane disallow="tram rail_urban rail rail_electric ship" id=":1072755085_4_0" index="0" length="3.97" shape="237.83,335.52 241.33,333.64" speed="9.72"/>
   </edge>
   <edge function="internal" id=":1072755085_5">
      <lane disallow="tram rail_urban rail rail_electric ship" id=":1072755085_5_0" index="0" length="8.11" shape="237.83,335.52 237.40,337.75 236.47,339.46 235.04,340.65 233.11,341.31" speed="9.72"/>
   </edge>
   <edge function="internal" id=":1072755085_6">
      <lane allow="delivery bicycle pedestrian" id=":1072755085_6_0" index="0" length="7.37" shape="237.83,335.52 235.56,335.64 234.30,335.00 234.06,333.61 234.82,331.47" speed="5.56"/>
   </edge>
   <edge function="internal" id=":1072755085_7">
      <lane allow="delivery bicycle pedestrian" id=":1072755085_7_0" index="0" length="4.81" shape="231.92,334.81 233.11,334.42 233.99,333.73 234.56,332.75 234.82,331.47" speed="9.72"/>
   </edge>
   <edge function="internal" id=":1072755085_8">
      <lane disallow="tram rail_urban rail rail_electric ship" id=":1072755085_8_0" index="0" length="9.33" shape="231.92,334.81 241.33,333.64" speed="13.89"/>
      <lane disallow="tram rail_urban rail rail_electric ship" id=":1072755085_8_1" index="1" length="9.33" shape="232.52,338.06 241.63,336.92" speed="13.89"/>
   </edge>
   <edge function="internal" id=":1072755085_10">
      <lane disallow="tram rail_urban rail rail_electric ship" id=":1072755085_10_0" index="0" length="2.56" shape="232.52,338.06 233.88,338.65 234.44,339.39 234.39,339.53" speed="13.89"/>
   </edge>
   <edge function="internal" id=":1072755085_13">
      <lane id=":1072755085_13_0" index="0" length="2.25" shape="234.39,339.53 234.18,340.27 233.11,341.31" speed="13.89"/>
   </edge>
   <edge function="internal" id=":1072755220_0">
      <lane allow="delivery bicycle pedestrian" id=":1072755220_0_0" index="0" length="9.50" shape="296.01,178.43 295.19,187.90" speed="5.56"/>
   </edge>
   <edge function="internal" id=":1072755220_1">
      <lane allow="delivery bicycle pedestrian" id=":1072755220_1_0" index="0" length="10.32" shape="296.01,178.43 295.37,181.17 294.00,183.06 291.89,184.09 289.06,184.27" speed="5.56"/>
   </edge>
   <edge function="internal" id=":1072755220_2">
      <lane allow="delivery bicycle pedestrian" id=":1072755220_2_0" index="0" length="4.82" shape="296.01,178.43 295.08,179.60 294.22,179.94 293.43,179.45 292.72,178.15" speed="5.56"/>
   </edge>
   <edge function="internal" id=":1072755220_3">
      <lane allow="delivery bicycle pedestrian" id=":1072755220_3_0" index="0" length="5.04" shape="289.31,180.98 290.70,180.90 291.73,180.39 292.41,179.48 292.72,178.15" speed="5.56"/>
   </edge>
   <edge function="internal" id=":1072755220_4">
      <lane allow="delivery bicycle pedestrian" id=":1072755220_4_0" index="0" length="10.38" shape="289.31,180.98 292.09,181.60 294.00,182.96 295.03,185.06 295.19,187.90" speed="5.56"/>
   </edge>
   <edge function="internal" id=":1072755220_5">
      <lane allow="delivery bicycle pedestrian" id=":1072755220_5_0" index="0" length="4.82" shape="289.31,180.98 290.48,181.90 290.83,182.75 290.36,183.54 289.06,184.27" speed="5.56"/>
   </edge>
   <edge function="internal" id=":1072755220_6">
      <lane allow="delivery bicycle pedestrian" id=":1072755220_6_0" index="0" length="5.01" shape="291.90,187.61 291.82,186.24 291.32,185.23 290.40,184.57 289.06,184.27" speed="5.56"/>
   </edge>
   <edge function="internal" id=":1072755220_7">
      <lane allow="delivery bicycle pedestrian" id=":1072755220_7_0" index="0" length="9.50" shape="291.90,187.61 292.72,178.15" speed="5.56"/>
   </edge>
   <edge function="internal" id=":1072755220_8">
      <lane allow="delivery bicycle pedestrian" id=":1072755220_8_0" index="0" length="4.82" shape="291.90,187.61 292.83,186.45 293.69,186.11 294.47,186.60 295.19,187.90" speed="5.56"/>
   </edge>
   <edge function="internal" id=":1072755292_0">
      <lane allow="delivery bicycle pedestrian" id=":1072755292_0_0" index="0" length="9.50" shape="287.51,276.35 286.69,285.82" speed="5.56"/>
   </edge>
   <edge function="internal" id=":1072755292_1">
      <lane allow="delivery bicycle pedestrian" id=":1072755292_1_0" index="0" length="10.37" shape="287.51,276.35 286.87,279.12 285.49,281.01 283.38,282.02 280.53,282.15" speed="5.56"/>
   </edge>
   <edge function="internal" id=":1072755292_2">
      <lane allow="delivery bicycle pedestrian" id=":1072755292_2_0" index="0" length="4.82" shape="287.51,276.35 286.58,277.51 285.72,277.85 284.94,277.37 284.22,276.07" speed="5.56"/>
   </edge>
   <edge function="internal" id=":1072755292_3">
      <lane allow="delivery bicycle pedestrian" id=":1072755292_3_0" index="0" length="5.01" shape="280.85,278.87 282.23,278.81 283.25,278.32 283.91,277.40 284.22,276.07" speed="5.56"/>
   </edge>
   <edge function="internal" id=":1072755292_4">
      <lane allow="delivery bicycle pedestrian" id=":1072755292_4_0" index="0" length="10.32" shape="280.85,278.87 283.61,279.54 285.50,280.91 286.53,283.01 286.69,285.82" speed="5.56"/>
   </edge>
   <edge function="internal" id=":1072755292_5">
      <lane allow="delivery bicycle pedestrian" id=":1072755292_5_0" index="0" length="4.82" shape="280.85,278.87 282.00,279.81 282.34,280.67 281.85,281.45 280.53,282.15" speed="5.56"/>
   </edge>
   <edge function="internal" id=":1072755292_6">
      <lane allow="delivery bicycle pedestrian" id=":1072755292_6_0" index="0" length="5.04" shape="283.40,285.53 283.32,284.17 282.82,283.15 281.89,282.48 280.53,282.15" speed="5.56"/>
   </edge>
   <edge function="internal" id=":1072755292_7">
      <lane allow="delivery bicycle pedestrian" id=":1072755292_7_0" index="0" length="9.50" shape="283.40,285.53 284.22,276.07" speed="5.56"/>
   </edge>
   <edge function="internal" id=":1072755292_8">
      <lane allow="delivery bicycle pedestrian" id=":1072755292_8_0" index="0" length="4.82" shape="283.40,285.53 284.33,284.37 285.19,284.03 285.97,284.51 286.69,285.82" speed="5.56"/>
   </edge>
   <edge function="internal" id=":1097727060_0">
      <lane disallow="tram rail_urban rail rail_electric ship" id=":1097727060_0_0" index="0" length="9.15" shape="402.77,650.92 394.10,648.00" speed="13.89"/>
   </edge>
   <edge function="internal" id=":1097727060_1">
      <lane allow="delivery bicycle pedestrian" id=":1097727060_1_0" index="0" length="5.03" shape="402.77,650.92 400.26,649.54 398.92,647.83" speed="9.72"/>
   </edge>
   <edge function="internal" id=":1097727060_2">
      <lane disallow="tram rail_urban rail rail_electric ship" id=":1097727060_2_0" index="0" length="2.41" shape="402.77,650.92 401.90,649.71 401.80,648.79" speed="13.89"/>
   </edge>
   <edge function="internal" id=":1097727060_9">
      <lane id=":1097727060_9_0" index="0" length="5.38" shape="398.92,647.83 398.81,647.70 398.42,645.38 399.09,642.60" speed="9.72"/>
   </edge>
   <edge function="internal" id=":1097727060_10">
      <lane id=":1097727060_10_0" index="0" length="2.41" shape="401.80,648.79 402.48,648.17 403.93,647.83" speed="13.89"/>
   </edge>
   <edge function="internal" id=":1097727060_3">
      <lane disallow="tram rail_urban rail rail_electric ship" id=":1097727060_3_0" index="0" length="5.02" shape="402.15,643.82 401.83,645.16 402.02,646.28 402.72,647.17 403.93,647.83" speed="9.72"/>
   </edge>
   <edge function="internal" id=":1097727060_4">
      <lane disallow="tram rail_urban rail rail_electric ship" id=":1097727060_4_0" index="0" length="10.15" shape="402.15,643.82 400.78,646.28 398.98,647.80 396.75,648.37 394.10,648.00" speed="9.72"/>
   </edge>
   <edge function="internal" id=":1097727060_5">
      <lane allow="delivery bicycle pedestrian" id=":1097727060_5_0" index="0" length="4.82" shape="402.15,643.82 400.93,644.67 400.01,644.75 399.40,644.06 399.09,642.60" speed="5.56"/>
   </edge>
   <edge function="internal" id=":1097727060_6">
      <lane allow="delivery bicycle pedestrian" id=":1097727060_6_0" index="0" length="5.18" shape="395.03,644.84 396.35,645.01 397.46,644.70 398.38,643.89 399.09,642.60" speed="9.72"/>
   </edge>
   <edge function="internal" id=":1097727060_7">
      <lane disallow="tram rail_urban rail rail_electric ship" id=":1097727060_7_0" index="0" length="9.39" shape="395.03,644.84 403.93,647.83" speed="13.89"/>
   </edge>
   <edge function="internal" id=":1097727060_8">
      <lane disallow="tram rail_urban rail rail_electric ship" id=":1097727060_8_0" index="0" length="2.53" shape="395.03,644.84 395.98,645.98 396.15,646.89 396.06,646.98" speed="13.89"/>
   </edge>
   <edge function="internal" id=":1097727060_11">
      <lane id=":1097727060_11_0" index="0" length="2.29" shape="396.06,646.98 395.52,647.56 394.10,648.00" speed="13.89"/>
   </edge>
   <edge function="internal" id=":1097727109_0">
      <lane disallow="tram rail_urban rail rail_electric ship" id=":1097727109_0_0" index="0" length="9.63" shape="462.43,673.99 453.23,671.13" speed="13.89"/>
   </edge>
   <edge function="internal" id=":1097727109_1">
      <lane allow="delivery bicycle pedestrian" id=":1097727109_1_0" index="0" length="5.36" shape="462.43,673.99 459.73,672.74 458.16,670.94" speed="9.72"/>
   </edge>
   <edge function="internal" id=":1097727109_2">
      <lane disallow="tram rail_urban rail rail_electric ship" id=":1097727109_2_0" index="0" length="2.41" shape="462.43,673.99 461.48,672.84 461.32,671.93" speed="13.89"/>
   </edge>
   <edge function="internal" id=":1097727109_9">
      <lane id=":1097727109_9_0" index="0" length="5.36" shape="458.16,670.94 457.70,668.60 458.36,665.70" speed="9.72"/>
   </edge>
   <edge function="internal" id=":1097727109_10">
      <lane id=":1097727109_10_0" index="0" length="2.41" shape="461.32,671.93 461.95,671.26 463.37,670.83" speed="13.89"/>
   </edge>
   <edge function="internal" id=":1097727109_3">
      <lane disallow="tram rail_urban rail rail_electric ship" id=":1097727109_3_0" index="0" length="5.09" shape="461.44,666.89 461.13,668.26 461.34,669.38 462.09,670.23 463.37,670.83" speed="9.72"/>
   </edge>
   <edge function="internal" id=":1097727109_4">
      <lane disallow="tram rail_urban rail rail_electric ship" id=":1097727109_4_0" index="0" length="10.41" shape="461.44,666.89 460.04,669.45 458.21,671.01 455.94,671.57 453.23,671.13" speed="9.72"/>
   </edge>
   <edge function="internal" id=":1097727109_5">
      <lane allow="delivery bicycle pedestrian" id=":1097727109_5_0" index="0" length="4.82" shape="461.44,666.89 460.23,667.75 459.31,667.83 458.69,667.15 458.36,665.70" speed="5.56"/>
   </edge>
   <edge function="internal" id=":1097727109_6">
      <lane allow="delivery bicycle pedestrian" id=":1097727109_6_0" index="0" length="5.30" shape="454.25,667.99 455.58,668.19 456.71,667.88 457.64,667.05 458.36,665.70" speed="9.72"/>
   </edge>
   <edge function="internal" id=":1097727109_7">
      <lane disallow="tram rail_urban rail rail_electric ship" id=":1097727109_7_0" index="0" length="9.55" shape="454.25,667.99 463.37,670.83" speed="13.89"/>
   </edge>
   <edge function="internal" id=":1097727109_8">
      <lane disallow="tram rail_urban rail rail_electric ship" id=":1097727109_8_0" index="0" length="2.41" shape="454.25,667.99 455.17,669.16 455.31,670.07" speed="13.89"/>
   </edge>
   <edge function="internal" id=":1097727109_11">
      <lane id=":1097727109_11_0" index="0" length="2.41" shape="455.31,670.07 454.67,670.73 453.23,671.13" speed="13.89"/>
   </edge>
   <edge function="internal" id=":1097831173_0">
      <lane disallow="tram rail_urban rail rail_electric ship" id=":1097831173_0_0" index="0" length="9.69" shape="449.17,409.96 447.97,419.58" speed="13.89"/>
   </edge>
   <edge function="internal" id=":1097831173_1">
      <lane allow="delivery bicycle pedestrian" id=":1097831173_1_0" index="0" length="5.46" shape="449.17,409.96 448.45,412.83 446.98,414.70 446.86,414.75" speed="9.72"/>
   </edge>
   <edge function="internal" id=":1097831173_2">
      <lane disallow="tram rail_urban rail rail_electric ship" id=":1097831173_2_0" index="0" length="2.41" shape="449.17,409.96 448.22,411.11 447.36,411.43" speed="13.89"/>
   </edge>
   <edge function="internal" id=":1097831173_9">
      <lane id=":1097831173_9_0" index="0" length="5.22" shape="446.86,414.75 444.76,415.59 441.81,415.50" speed="9.72"/>
   </edge>
   <edge function="internal" id=":1097831173_10">
      <lane id=":1097831173_10_0" index="0" length="2.41" shape="447.36,411.43 446.58,410.93 445.89,409.61" speed="13.89"/>
   </edge>
   <edge function="internal" id=":1097831173_3">
      <lane disallow="tram rail_urban rail rail_electric ship" id=":1097831173_3_0" index="0" length="5.08" shape="442.39,412.25 443.79,412.29 444.85,411.87 445.55,410.98 445.89,409.61" speed="9.72"/>
   </edge>
   <edge function="internal" id=":1097831173_4">
      <lane disallow="tram rail_urban rail rail_electric ship" id=":1097831173_4_0" index="0" length="10.44" shape="442.39,412.25 445.17,413.14 447.02,414.66 447.96,416.80 447.97,419.58" speed="9.72"/>
   </edge>
   <edge function="internal" id=":1097831173_5">
      <lane allow="delivery bicycle pedestrian" id=":1097831173_5_0" index="0" length="4.82" shape="442.39,412.25 443.46,413.28 443.72,414.16 443.17,414.90 441.81,415.50" speed="5.56"/>
   </edge>
   <edge function="internal" id=":1097831173_6">
      <lane allow="delivery bicycle pedestrian" id=":1097831173_6_0" index="0" length="5.23" shape="444.70,419.11 444.69,417.75 444.20,416.70 443.24,415.94 441.81,415.50" speed="9.72"/>
   </edge>
   <edge function="internal" id=":1097831173_7">
      <lane disallow="tram rail_urban rail rail_electric ship" id=":1097831173_7_0" index="0" length="9.57" shape="444.70,419.11 445.89,409.61" speed="13.89"/>
   </edge>
   <edge function="internal" id=":1097831173_8">
      <lane disallow="tram rail_urban rail rail_electric ship" id=":1097831173_8_0" index="0" length="2.41" shape="444.70,419.11 445.70,418.00 446.57,417.71" speed="13.89"/>
   </edge>
   <edge function="internal" id=":1097831173_11">
      <lane id=":1097831173_11_0" index="0" length="2.41" shape="446.57,417.71 447.33,418.24 447.97,419.58" speed="13.89"/>
   </edge>
   <edge function="internal" id=":1106556809_0">
      <lane allow="delivery bicycle pedestrian" id=":1106556809_0_0" index="0" length="0.40" shape="651.95,5.75 651.92,5.35" speed="5.56"/>
   </edge>
   <edge function="internal" id=":1106556809_1">
      <lane allow="delivery bicycle pedestrian" id=":1106556809_1_0" index="0" length="2.41" shape="651.95,5.75 652.62,4.42 653.38,3.91" speed="5.56"/>
   </edge>
   <edge function="internal" id=":1106556809_4">
      <lane id=":1106556809_4_0" index="0" length="2.41" shape="653.38,3.91 654.25,4.21 655.23,5.34" speed="5.56"/>
   </edge>
   <edge function="internal" id=":1106556809_2">
      <lane allow="delivery bicycle pedestrian" id=":1106556809_2_0" index="0" length="0.13" shape="655.22,5.21 655.23,5.34" speed="5.56"/>
   </edge>
   <edge function="internal" id=":1106556809_3">
      <lane allow="delivery bicycle pedestrian" id=":1106556809_3_0" index="0" length="2.41" shape="655.22,5.21 654.45,6.48 653.64,6.93" speed="5.56"/>
   </edge>
   <edge function="internal" id=":1106556809_5">
      <lane id=":1106556809_5_0" index="0" length="2.41" shape="653.64,6.93 652.80,6.55 651.92,5.35" speed="5.56"/>
   </edge>
   <edge function="internal" id=":1106587171_0">
      <lane disallow="tram rail_urban rail rail_electric ship" id=":1106587171_0_0" index="0" length="0.10" shape="22.18,107.40 22.18,107.44" speed="8.33"/>
   </edge>
   <edge function="internal" id=":1106587171_1">
      <lane disallow="tram rail_urban rail rail_electric ship" id=":1106587171_1_0" index="0" length="2.41" shape="22.18,107.40 22.77,106.04 23.52,105.49" speed="8.33"/>
   </edge>
   <edge function="internal" id=":1106587171_4">
      <lane id=":1106587171_4_0" index="0" length="2.41" shape="23.52,105.49 24.40,105.75 25.43,106.83" speed="8.33"/>
   </edge>
   <edge function="internal" id=":1106587171_2">
      <lane disallow="tram rail_urban rail rail_electric ship" id=":1106587171_2_0" index="0" length="0.10" shape="25.42,106.82 25.43,106.83" speed="8.33"/>
   </edge>
   <edge function="internal" id=":1106587171_3">
      <lane disallow="tram rail_urban rail rail_electric ship" id=":1106587171_3_0" index="0" length="2.41" shape="25.42,106.82 24.85,108.19 24.11,108.75" speed="8.33"/>
   </edge>
   <edge function="internal" id=":1106587171_5">
      <lane id=":1106587171_5_0" index="0" length="2.41" shape="24.11,108.75 23.22,108.50 22.18,107.44" speed="8.33"/>
   </edge>
   <edge function="internal" id=":1112004354_0">
      <lane allow="delivery bicycle pedestrian" id=":1112004354_0_0" index="0" length="5.14" shape="573.27,512.78 571.85,512.69 570.78,513.09 570.08,513.98 569.73,515.37" speed="9.72"/>
   </edge>
   <edge function="internal" id=":1112004354_1">
      <lane disallow="tram rail_urban rail rail_electric ship" id=":1112004354_1_0" index="0" length="9.88" shape="573.27,512.78 563.60,510.75" speed="13.89"/>
   </edge>
   <edge function="internal" id=":1112004354_2">
      <lane allow="delivery bicycle pedestrian" id=":1112004354_2_0" index="0" length="5.53" shape="573.27,512.78 570.46,511.78 568.63,510.16 568.60,510.06" speed="9.72"/>
   </edge>
   <edge function="internal" id=":1112004354_3">
      <lane disallow="tram rail_urban rail rail_electric ship" id=":1112004354_3_0" index="0" length="2.41" shape="573.27,512.78 572.24,511.72 572.00,510.83" speed="13.89"/>
   </edge>
   <edge function="internal" id=":1112004354_16">
      <lane id=":1112004354_16_0" index="0" length="5.11" shape="568.60,510.06 567.79,507.94 567.93,505.10" speed="9.72"/>
   </edge>
   <edge function="internal" id=":1112004354_17">
      <lane id=":1112004354_17_0" index="0" length="2.41" shape="572.00,510.83 572.58,510.10 573.96,509.56" speed="13.89"/>
   </edge>
   <edge function="internal" id=":1112004354_4">
      <lane disallow="tram rail_urban rail rail_electric ship" id=":1112004354_4_0" index="0" length="5.36" shape="571.17,505.76 571.11,507.15 571.55,508.24 572.51,509.05 573.96,509.56" speed="9.72"/>
   </edge>
   <edge function="internal" id=":1112004354_5">
      <lane allow="delivery bicycle pedestrian" id=":1112004354_5_0" index="0" length="9.72" shape="571.17,505.76 569.73,515.37" speed="5.56"/>
   </edge>
   <edge function="internal" id=":1112004354_6">
      <lane disallow="tram rail_urban rail rail_electric ship" id=":1112004354_6_0" index="0" length="10.34" shape="571.17,505.76 570.22,508.43 568.64,510.15 566.44,510.93 563.60,510.75" speed="9.72"/>
   </edge>
   <edge function="internal" id=":1112004354_7">
      <lane allow="delivery bicycle pedestrian" id=":1112004354_7_0" index="0" length="4.82" shape="571.17,505.76 570.11,506.81 569.22,507.05 568.50,506.48 567.93,505.10" speed="5.56"/>
   </edge>
   <edge function="internal" id=":1112004354_8">
      <lane allow="delivery bicycle pedestrian" id=":1112004354_8_0" index="0" length="5.00" shape="564.27,507.52 565.64,507.61 566.71,507.23 567.47,506.40 567.93,505.10" speed="9.72"/>
   </edge>
   <edge function="internal" id=":1112004354_9">
      <lane disallow="tram rail_urban rail rail_electric ship" id=":1112004354_9_0" index="0" length="9.90" shape="564.27,507.52 573.96,509.56" speed="13.89"/>
   </edge>
   <edge function="internal" id=":1112004354_10">
      <lane allow="delivery bicycle pedestrian" id=":1112004354_10_0" index="0" length="5.23" shape="564.27,507.52 566.91,508.49 568.70,510.12" speed="9.72"/>
   </edge>
   <edge function="internal" id=":1112004354_11">
      <lane disallow="tram rail_urban rail rail_electric ship" id=":1112004354_11_0" index="0" length="2.41" shape="564.27,507.52 565.32,508.58 565.55,509.47" speed="13.89"/>
   </edge>
   <edge function="internal" id=":1112004354_18">
      <lane id=":1112004354_18_0" index="0" length="5.44" shape="568.70,510.12 569.64,512.41 569.73,515.37" speed="9.72"/>
   </edge>
   <edge function="internal" id=":1112004354_19">
      <lane id=":1112004354_19_0" index="0" length="2.41" shape="565.55,509.47 564.98,510.19 563.60,510.75" speed="13.89"/>
   </edge>
   <edge function="internal" id=":1112004354_12">
      <lane disallow="tram rail_urban rail rail_electric ship" id=":1112004354_12_0" index="0" length="5.74" shape="566.45,515.04 566.41,513.41 565.92,512.16 564.99,511.27 563.60,510.75" speed="9.72"/>
   </edge>
   <edge function="internal" id=":1112004354_13">
      <lane allow="delivery bicycle pedestrian" id=":1112004354_13_0" index="0" length="10.05" shape="566.45,515.04 566.75,512.08 567.01,510.04 567.35,508.02 567.93,505.10" speed="5.56"/>
   </edge>
   <edge function="internal" id=":1112004354_14">
      <lane disallow="tram rail_urban rail rail_electric ship" id=":1112004354_14_0" index="0" length="10.89" shape="566.45,515.04 567.18,512.10 568.68,510.20 570.94,509.35 573.96,509.56" speed="9.72"/>
   </edge>
   <edge function="internal" id=":1112004354_15">
      <lane allow="delivery bicycle pedestrian" id=":1112004354_15_0" index="0" length="4.82" shape="566.45,515.04 567.39,513.89 568.26,513.56 569.04,514.05 569.73,515.37" speed="5.56"/>
   </edge>
   <edge function="internal" id=":1112004521_0">
      <lane allow="delivery bicycle pedestrian" id=":1112004521_0_0" index="0" length="4.82" shape="498.68,620.38 497.46,619.53 497.07,618.70 497.49,617.88 498.75,617.08" speed="5.56"/>
   </edge>
   <edge function="internal" id=":1112004584_0">
      <lane allow="delivery bicycle pedestrian" id=":1112004584_0_0" index="0" length="4.82" shape="570.77,739.57 569.92,740.79 569.09,741.19 568.27,740.76 567.47,739.51" speed="5.56"/>
   </edge>
   <edge function="internal" id=":1157973606_0">
      <lane allow="delivery bicycle pedestrian" id=":1157973606_0_0" index="0" length="4.82" shape="259.01,367.09 257.57,366.71 256.91,366.07 257.03,365.15 257.93,363.97" speed="5.56"/>
   </edge>
   <edge function="internal" id=":1157973908_0">
      <lane allow="delivery bicycle pedestrian" id=":1157973908_0_0" index="0" length="4.82" shape="599.00,790.42 598.19,791.66 597.37,792.09 596.54,791.69 595.70,790.46" speed="5.56"/>
   </edge>
   <edge function="internal" id=":1287400783_0">
      <lane allow="delivery bicycle pedestrian" id=":1287400783_0_0" index="0" length="4.72" shape="105.53,732.80 105.30,731.60 104.70,730.76 103.71,730.27 102.35,730.14" speed="5.56"/>
   </edge>
   <edge function="internal" id=":1287400783_1">
      <lane allow="delivery bicycle pedestrian" id=":1287400783_1_0" index="0" length="9.15" shape="105.53,732.80 105.27,723.65" speed="5.56"/>
   </edge>
   <edge function="internal" id=":1287400783_2">
      <lane allow="delivery bicycle pedestrian" id=":1287400783_2_0" index="0" length="4.93" shape="105.53,732.80 106.04,731.36 106.76,730.75 107.68,730.95 108.81,731.98" speed="5.56"/>
   </edge>
   <edge function="internal" id=":1287400783_3">
      <lane allow="delivery bicycle pedestrian" id=":1287400783_3_0" index="0" length="8.43" shape="108.56,723.55 108.81,731.98" speed="5.56"/>
   </edge>
   <edge function="internal" id=":1287400783_4">