<?xml version="1.0" encoding="utf-8"?><!-- generated on 10/11/17 17:58:10 by SUMO polyconvert Version 0.25.0
<?xml version="1.0" encoding="UTF-8"?>

<configuration xmlns:xsi="http://www.w3.org/2001/XMLSchema-instance" xsi:noNamespaceSchemaLocation="http://sumo.dlr.de/xsd/polyconvertConfiguration.xsd">

    <input>
        <net-file value="R_Westheim_urban_800.net.xml"/>
        <osm-files value="R_Westheim_urban_800.osm"/>
        <type-file value="osmPolyconvert.typ.xml"/>
    </input>

    <output>
        <output-file value="R_Westheim_urban_800.poly.xml"/>
    </output>

    <projection>
        <proj.utm value="true"/>
    </projection>

    <processing>
        <poi-layer-offset value="5"/>
    </processing>

</configuration>
-->
<additional>
   <location convBoundary="-18.74,-16.86,805.33,812.82" netOffset="-284955.84,-5433920.65" origBoundary="12.058270,49.020760,12.069248,49.027967" projParameter="+proj=utm +zone=33 +ellps=WGS84 +datum=WGS84 +units=m +no_defs"/>
   <poly color="207,245,201" fill="1" id="117393347" layer="-2.00" shape="753.50,-14.13 749.48,-16.86 766.90,-14.55 765.26,-12.25 763.15,-10.00 758.71,-11.09 753.50,-14.13" type="leisure"/>
   <poly color="79,230,125" fill="1" id="117393347#1" layer="-2.00" shape="753.50,-14.13 749.48,-16.86 766.90,-14.55 765.26,-12.25 763.15,-10.00 758.71,-11.09 753.50,-14.13" type="sport"/>
   <poly color="red" fill="1" id="118328113" layer="-1.00" shape="366.98,283.89 366.31,270.79 349.36,271.66 350.03,284.76 366.98,283.89" type="building"/>
   <poly color="red" fill="1" id="118328114" layer="-1.00" shape="372.62,209.17 372.35,203.00 377.09,202.79 377.37,208.96 372.62,209.17" type="building"/>
   <poly color="194,194,130" fill="1" id="118328116" layer="-3.00" shape="155.50,283.71 103.32,277.97 102.79,252.23 102.62,246.19 102.61,223.85 136.38,229.29 176.70,230.55 215.05,229.07 215.15,292.04 155.50,283.71" type="landuse"/>
   <poly color="red" fill="0" id="118328118" layer="-1.00" shape="15.02,251.45 14.91,248.18 18.79,248.05 18.90,251.40 30.67,251.01 31.02,261.98 31.14,265.64" type="building"/>
   <poly color="red" fill="1" id="118328120" layer="-1.00" shape="261.78,257.18 261.57,251.71 261.36,246.25 261.15,240.78 260.93,235.31 254.54,230.10 248.36,230.34 242.17,230.58 235.99,230.82 229.80,231.06 223.62,231.29 224.15,244.92 245.08,244.11 245.62,257.94 261.78,257.18" type="building"/>
   <poly color="red" fill="1" id="118328121" layer="-1.00" shape="303.96,281.56 310.71,281.24 310.83,283.88 316.08,283.64 315.94,280.77 326.59,280.27 325.86,264.70 303.21,265.77 303.96,281.56" type="building"/>
   <poly color="red" fill="1" id="118328124" layer="-1.00" shape="303.96,281.56 303.21,265.77 280.54,266.84 281.29,282.84 291.54,282.36 291.66,284.79 295.96,284.59 295.84,281.94 303.96,281.56" type="building"/>
   <poly color="red" fill="1" id="118328125" layer="-1.00" shape="387.05,291.54 386.35,279.37 422.02,277.34 422.72,289.50 387.05,291.54" type="building"/>
   <poly color="red" fill="1" id="118328128" layer="-1.00" shape="31.02,261.98 67.81,260.79 67.36,246.85 48.99,247.45 48.59,234.75 66.98,234.16 66.73,226.58 48.76,227.17 48.61,222.61 29.77,223.22 30.67,251.01 31.02,261.98" type="building"/>
   <poly color="red" fill="1" id="118328130" layer="-1.00" shape="366.98,283.89 366.31,270.79 383.26,269.92 383.93,283.02 366.98,283.89" type="building"/>
   <poly color="red" fill="1" id="118328132" layer="-1.00" shape="67.97,265.01 75.56,264.77 75.60,266.38 80.06,266.24 80.00,264.46 88.41,264.19 87.18,225.92 66.73,226.58 66.98,234.16 67.36,246.85 67.81,260.79 67.97,265.01" type="building"/>
   <poly color="red" fill="1" id="118335409" layer="-1.00" shape="33.38,66.29 31.04,53.24 82.75,44.03 85.08,57.09 33.38,66.29" type="building"/>
   <poly color="184,184,179" fill="1" id="118335411" layer="-1.00" shape="6.74,187.67 4.03,131.08 0.19,131.56 -11.30,133.34 -11.72,130.66 6.74,187.67" type="parking"/>
   <poly color="red" fill="1" id="118335415" layer="-1.00" shape="8.77,98.63 22.25,96.31 20.78,87.76 22.73,87.42 21.25,78.91 19.41,79.23 17.93,70.69 4.34,73.02 8.77,98.63" type="building"/>
   <poly color="red" fill="1" id="118335416" layer="-1.00" shape="42.81,121.05 80.59,115.26 78.19,99.64 40.40,105.44 42.81,121.05" type="building"/>
   <poly color="194,194,130" fill="1" id="118337124" layer="-3.00" shape="114.00,162.51 183.25,151.16 185.13,164.21 183.77,171.86 180.58,179.38 176.38,185.28 173.40,188.30 169.82,191.14 163.26,194.72 156.00,196.88 147.32,197.43 139.73,196.15 132.86,193.43 126.00,188.76 120.29,182.49 116.54,175.83 114.00,162.51" type="landuse"/>
   <poly color="207,245,201" fill="1" id="118337129" layer="-2.00" shape="109.41,163.44 112.04,176.46 116.28,184.45 122.15,191.96 131.05,197.77 137.93,200.39 146.53,201.60 157.53,200.51 165.06,198.26 172.44,194.32 176.29,191.24 179.84,187.82 184.94,182.16 188.92,173.02 189.76,163.66 189.09,157.64 187.90,150.33 173.96,64.87 171.31,57.38 168.29,52.12 163.69,46.89 158.44,41.65 151.79,37.91 143.99,35.00 136.70,33.97 128.97,34.50 120.52,36.97 114.16,40.42 106.63,46.21 101.16,52.81 98.00,58.29 96.52,64.10 95.48,70.96 95.79,77.96 109.41,163.44" type="leisure"/>
   <poly color="79,230,125" fill="1" id="118337129#1" layer="-2.00" shape="109.41,163.44 112.04,176.46 116.28,184.45 122.15,191.96 131.05,197.77 137.93,200.39 146.53,201.60 157.53,200.51 165.06,198.26 172.44,194.32 176.29,191.24 179.84,187.82 184.94,182.16 188.92,173.02 189.76,163.66 189.09,157.64 187.90,150.33 173.96,64.87 171.31,57.38 168.29,52.12 163.69,46.89 158.44,41.65 151.79,37.91 143.99,35.00 136.70,33.97 128.97,34.50 120.52,36.97 114.16,40.42 106.63,46.21 101.16,52.81 98.00,58.29 96.52,64.10 95.48,70.96 95.79,77.96 109.41,163.44" type="sport"/>
   <poly color="194,194,130" fill="1" id="118337130" layer="-3.00" shape="99.95,77.16 169.20,65.81 166.83,59.25 164.06,54.03 160.62,49.55 155.75,45.12 149.77,41.50 142.96,39.09 135.85,38.14 128.82,38.65 121.87,40.61 115.83,43.75 109.75,48.75 105.01,54.91 102.38,60.22 100.78,65.54 100.06,70.88 99.95,77.16" type="landuse"/>
   <poly color="red" fill="1" id="118337138" layer="-1.00" shape="87.07,90.37 99.29,160.02 107.19,158.64 94.98,88.98 87.07,90.37" type="building"/>
   <poly color="red" fill="1" id="118340020" layer="-1.00" shape="218.68,196.04 217.90,190.89 225.68,189.70 226.48,194.85 218.68,196.04" type="building"/>
   <poly color="red" fill="1" id="118340024" layer="-1.00" shape="216.02,193.65 215.19,189.56 217.92,189.01 216.45,181.75 210.21,183.00 210.66,185.24 203.49,186.68 205.33,195.82 216.02,193.65" type="building"/>
   <poly color="red" fill="1" id="118340028" layer="-1.00" shape="269.53,182.91 269.14,170.68 274.00,170.53 274.40,182.75 269.53,182.91" type="building"/>
   <poly color="207,245,201" fill="1" id="118340865" layer="-2.00" shape="267.38,191.06 266.49,163.56 319.68,161.82 320.33,182.03 330.36,180.35 334.70,177.77 338.00,172.97 339.75,167.47 339.77,161.89 172.61,23.74 203.68,203.15 267.38,191.06" type="leisure"/>
   <poly color="209,209,204" fill="1" id="118340876" layer="-3.00" shape="267.38,191.06 320.33,182.03 319.68,161.82 266.49,163.56 267.38,191.06" type="commercial"/>
   <poly color="207,245,201" fill="1" id="118342246" layer="-2.00" shape="203.68,203.15 172.61,23.74 29.38,48.97 36.91,89.73 85.16,81.37 106.47,201.24 128.05,203.83 146.91,204.28 180.40,204.55 203.68,203.15" type="leisure"/>
   <poly color="237,199,199" fill="1" id="122318682" layer="-1.00" shape="594.57,318.74 593.42,212.31 604.03,202.97 604.30,196.36 660.77,163.97 668.58,149.37 672.60,131.23 745.94,132.01 762.48,304.25 761.33,313.10 752.86,318.57 594.57,318.74" type="amenity"/>
   <poly color="184,184,179" fill="1" id="122318684" layer="-1.00" shape="726.05,261.60 754.14,260.82 755.78,315.53 727.90,315.82 726.05,261.60" type="parking"/>
   <poly color="207,245,201" fill="0" id="124793859" layer="-2.00" shape="127.67,805.71 338.68,797.27" type="leisure"/>
   <poly color="79,230,125" fill="0" id="124793859#1" layer="-2.00" shape="127.67,805.71 338.68,797.27" type="sport"/>
   <poly color="140,196,107" fill="0" id="143994261" layer="-4.00" shape="392.96,194.35 353.49,195.84 307.11,201.08 200.58,216.86 175.98,218.96 155.33,219.62 132.47,218.86 106.04,217.55 48.62,210.04 37.33,208.72 14.39,207.96" type="natural"/>
   <poly color="red" fill="0" id="149234477" layer="-1.00" shape="650.00,-4.95 640.59,-4.59 628.00,-4.09 605.90,-3.22 591.20,-2.65 576.67,-2.08 565.06,-1.62 548.71,-0.99 513.99,0.38 513.83,-3.76 503.82,-3.36 494.63,-3.00 494.80,1.31 458.30,2.73 443.22,3.33 418.94,4.28 404.84,4.83 397.85,5.11" type="building"/>
   <poly color="red" fill="1" id="149476945" layer="-1.00" shape="587.82,179.96 586.81,153.72 637.08,152.04 637.38,159.91 622.81,171.51 606.77,179.23 587.82,179.96" type="building"/>
   <poly color="red" fill="1" id="149476946" layer="-1.00" shape="539.97,52.45 564.93,51.32 564.31,37.71 552.66,38.24 539.34,38.84 539.81,48.89 539.97,52.45" type="building"/>
   <poly color="red" fill="1" id="149476947" layer="-1.00" shape="514.96,84.08 540.00,83.24 539.62,71.81 514.58,72.65 514.75,77.67 514.96,84.08" type="building"/>
   <poly color="red" fill="1" id="149476950" layer="-1.00" shape="548.82,83.70 564.23,83.00 563.72,71.96 563.27,62.21 547.85,62.92 548.82,83.70" type="building"/>
   <poly color="red" fill="1" id="149476952" layer="-1.00" shape="513.98,58.98 527.94,58.35 527.54,49.45 539.81,48.89 539.34,38.84 513.12,40.04 513.56,49.67 513.98,58.98" type="building"/>
   <poly color="194,194,130" fill="1" id="156538609" layer="-3.00" shape="136.49,25.79 187.80,16.17 136.49,25.79" type="landuse"/>
   <poly color="red" fill="1" id="158777160" layer="-1.00" shape="639.76,519.02 655.11,517.99 654.10,502.91 638.75,503.94 639.76,519.02" type="building"/>
   <poly color="red" fill="1" id="158777166" layer="-1.00" shape="365.28,360.10 366.65,348.56 329.01,344.13 327.64,355.67 365.28,360.10" type="building"/>
   <poly color="red" fill="1" id="158777169" layer="-1.00" shape="507.83,389.46 508.45,402.24 493.41,402.95 492.50,384.03 507.54,383.32 507.83,389.46" type="building"/>
   <poly color="red" fill="1" id="159235974" layer="-1.00" shape="645.54,72.06 656.35,72.24 656.48,64.38 656.58,58.43 647.75,58.25 645.78,58.26 645.54,72.06" type="building"/>
   <poly color="red" fill="1" id="160267382" layer="-1.00" shape="676.70,46.74 676.62,53.21 676.52,61.79 682.92,61.86 682.87,66.25 698.73,66.44 698.93,50.36 692.48,50.27 692.52,46.93 676.70,46.74" type="building"/>
   <poly color="207,245,201" fill="1" id="162117433" layer="-2.00" shape="634.83,207.43 634.97,211.04 638.69,210.89 638.46,207.29 634.83,207.43" type="tourism"/>
   <poly color="207,245,201" fill="1" id="162117434" layer="-2.00" shape="650.82,304.12 654.86,303.94 654.66,299.59 650.62,299.78 650.82,304.12" type="tourism"/>
   <poly color="red" fill="1" id="165011824" layer="-1.00" shape="314.81,413.66 343.45,411.98 342.83,401.56 314.20,403.25 314.81,413.66" type="building"/>
   <poly color="red" fill="1" id="165011825" layer="-1.00" shape="499.06,690.50 518.06,689.39 517.25,675.41 498.25,676.51 499.06,690.50" type="building"/>
   <poly color="red" fill="1" id="165011827" layer="-1.00" shape="467.24,637.11 473.64,636.78 473.01,624.32 466.61,624.64 467.24,637.11" type="building"/>
   <poly color="red" fill="1" id="165011828" layer="-1.00" shape="460.85,637.43 467.24,637.11 466.61,624.64 460.21,624.97 460.85,637.43" type="building"/>
   <poly color="red" fill="1" id="165011829" layer="-1.00" shape="454.45,637.76 460.85,637.43 460.21,624.97 453.81,625.29 454.45,637.76" type="building"/>
   <poly color="red" fill="1" id="165011831" layer="-1.00" shape="347.43,649.11 353.92,648.89 353.44,634.99 346.94,635.21 347.43,649.11" type="building"/>
   <poly color="red" fill="1" id="165011832" layer="-1.00" shape="353.92,648.89 360.40,648.67 359.93,634.77 353.44,634.99 353.92,648.89" type="building"/>
   <poly color="red" fill="1" id="165011833" layer="-1.00" shape="360.40,648.67 366.89,648.44 366.41,634.55 359.93,634.77 360.40,648.67" type="building"/>
   <poly color="red" fill="1" id="165011834" layer="-1.00" shape="448.05,638.07 454.45,637.76 453.81,625.29 447.41,625.62 448.05,638.07" type="building"/>
   <poly color="red" fill="1" id="165011835" layer="-1.00" shape="441.65,638.40 448.05,638.07 447.41,625.62 441.02,625.95 441.65,638.40" type="building"/>
   <poly color="red" fill="1" id="165011836" layer="-1.00" shape="435.25,638.73 441.65,638.40 441.02,625.95 434.62,626.26 435.25,638.73" type="building"/>
   <poly color="red" fill="1" id="165011837" layer="-1.00" shape="366.89,648.44 373.38,648.22 372.90,634.33 366.41,634.55 366.89,648.44" type="building"/>
   <poly color="red" fill="1" id="165011838" layer="-1.00" shape="373.38,648.22 379.87,647.99 379.39,634.10 372.90,634.33 373.38,648.22" type="building"/>
   <poly color="red" fill="1" id="165011839" layer="-1.00" shape="379.87,647.99 386.36,647.78 385.88,633.88 379.39,634.10 379.87,647.99" type="building"/>
   <poly color="red" fill="1" id="165011840" layer="-1.00" shape="386.36,647.78 392.84,647.55 392.37,633.65 385.88,633.88 386.36,647.78" type="building"/>
   <poly color="red" fill="1" id="165011841" layer="-1.00" shape="428.85,639.05 435.25,638.73 434.62,626.26 428.22,626.59 428.85,639.05" type="building"/>
   <poly color="red" fill="1" id="165011843" layer="-1.00" shape="422.45,639.38 428.85,639.05 428.22,626.59 421.82,626.91 422.45,639.38" type="building"/>
   <poly color="red" fill="1" id="165011844" layer="-1.00" shape="349.53,618.12 349.08,604.16 343.16,604.36 339.19,604.49 339.65,618.44 349.53,618.12" type="building"/>
   <poly color="red" fill="1" id="165011845" layer="-1.00" shape="416.06,639.70 422.45,639.38 421.82,626.91 415.42,627.24 416.06,639.70" type="building"/>
   <poly color="red" fill="1" id="165011846" layer="-1.00" shape="409.66,640.03 416.06,639.70 415.42,627.24 409.02,627.56 409.66,640.03" type="building"/>
   <poly color="red" fill="1" id="165011847" layer="-1.00" shape="370.32,618.03 369.69,604.09 363.86,604.30 359.90,604.52 360.53,618.47 370.32,618.03" type="building"/>
   <poly color="red" fill="1" id="165011848" layer="-1.00" shape="469.92,612.62 469.28,598.67 463.45,598.89 459.50,599.12 460.12,613.06 469.92,612.62" type="building"/>
   <poly color="red" fill="1" id="165011849" layer="-1.00" shape="390.83,617.08 390.19,603.14 384.37,603.35 380.41,603.58 381.04,617.52 390.83,617.08" type="building"/>
   <poly color="red" fill="1" id="165011850" layer="-1.00" shape="518.06,689.39 541.14,688.06 540.96,684.97 540.33,674.07 517.25,675.41 518.06,689.39" type="building"/>
   <poly color="red" fill="1" id="165011852" layer="-1.00" shape="540.96,684.97 562.75,683.71 561.91,669.26 540.12,670.52 540.33,674.07 540.96,684.97" type="building"/>
   <poly color="red" fill="1" id="165011855" layer="-1.00" shape="449.53,613.72 448.90,599.77 443.07,599.99 439.11,600.22 439.74,614.16 449.53,613.72" type="building"/>
   <poly color="red" fill="1" id="165011861" layer="-1.00" shape="343.16,604.36 342.67,589.36 333.58,589.66 334.06,604.65 339.19,604.49 343.16,604.36" type="building"/>
   <poly color="red" fill="1" id="165011864" layer="-1.00" shape="429.80,614.64 429.16,600.69 423.34,600.91 419.38,601.14 420.01,615.08 429.80,614.64" type="building"/>
   <poly color="red" fill="1" id="165011865" layer="-1.00" shape="363.86,604.30 363.37,589.34 354.28,589.63 354.76,604.59 363.86,604.30" type="building"/>
   <poly color="red" fill="1" id="165011867" layer="-1.00" shape="409.76,615.72 409.13,601.78 403.30,601.99 399.34,602.23 399.97,616.17 409.76,615.72" type="building"/>
   <poly color="red" fill="1" id="165011870" layer="-1.00" shape="384.37,603.35 383.88,588.39 374.79,588.68 375.27,603.64 384.37,603.35" type="building"/>
   <poly color="red" fill="1" id="165011872" layer="-1.00" shape="463.45,598.89 462.97,583.93 453.88,584.22 454.36,599.18 463.45,598.89" type="building"/>
   <poly color="red" fill="1" id="165011874" layer="-1.00" shape="443.07,599.99 442.59,585.02 433.50,585.32 433.97,600.28 443.07,599.99" type="building"/>
   <poly color="red" fill="1" id="165011876" layer="-1.00" shape="286.18,415.34 314.81,413.66 314.20,403.25 285.57,404.92 286.18,415.34" type="building"/>
   <poly color="red" fill="1" id="165011877" layer="-1.00" shape="495.24,615.55 508.58,614.65 507.58,599.95 494.24,600.86 495.24,615.55" type="building"/>
   <poly color="red" fill="1" id="165011878" layer="-1.00" shape="329.93,677.23 336.41,676.97 335.89,663.81 329.41,664.07 329.93,677.23" type="building"/>
   <poly color="red" fill="1" id="165011882" layer="-1.00" shape="395.12,408.97 421.78,407.35 421.11,396.25 394.45,397.87 395.12,408.97" type="building"/>
   <poly color="red" fill="1" id="165011884" layer="-1.00" shape="423.34,600.91 422.85,585.94 413.76,586.24 414.24,601.20 423.34,600.91" type="building"/>
   <poly color="red" fill="1" id="165011886" layer="-1.00" shape="329.11,457.35 330.10,479.02 330.32,483.91 342.66,483.36 341.45,456.79 329.11,457.35" type="building"/>
   <poly color="red" fill="1" id="165011888" layer="-1.00" shape="403.30,601.99 402.82,587.03 393.72,587.33 394.21,602.29 403.30,601.99" type="building"/>
   <poly color="red" fill="1" id="165011889" layer="-1.00" shape="327.91,430.97 328.12,435.67 329.11,457.35 341.45,456.79 340.25,430.41 327.91,430.97" type="building"/>
   <poly color="red" fill="1" id="165011890" layer="-1.00" shape="466.29,575.09 466.10,569.92 454.15,570.35 454.34,575.52 466.29,575.09" type="building"/>
   <poly color="red" fill="1" id="165011891" layer="-1.00" shape="466.10,569.92 465.93,564.75 453.97,565.18 454.15,570.35 466.10,569.92" type="building"/>
   <poly color="red" fill="1" id="165011892" layer="-1.00" shape="465.93,564.75 465.74,559.58 453.79,560.00 453.97,565.18 465.93,564.75" type="building"/>
   <poly color="red" fill="1" id="165011893" layer="-1.00" shape="465.74,559.58 465.55,554.41 453.60,554.83 453.79,560.00 465.74,559.58" type="building"/>
   <poly color="red" fill="1" id="165011894" layer="-1.00" shape="453.51,535.49 453.74,540.90 464.45,540.45 464.23,535.05 453.51,535.49" type="building"/>
   <poly color="red" fill="1" id="165011895" layer="-1.00" shape="453.29,530.09 453.51,535.49 464.23,535.05 464.00,529.64 453.29,530.09" type="building"/>
   <poly color="red" fill="1" id="165011897" layer="-1.00" shape="453.06,524.68 453.29,530.09 464.00,529.64 463.78,524.24 453.06,524.68" type="building"/>
   <poly color="red" fill="1" id="165011899" layer="-1.00" shape="452.84,519.27 453.06,524.68 463.78,524.24 463.55,518.83 452.84,519.27" type="building"/>
   <poly color="red" fill="1" id="165011901" layer="-1.00" shape="452.62,513.86 452.84,519.27 463.55,518.83 463.33,513.41 452.62,513.86" type="building"/>
   <poly color="red" fill="1" id="165011903" layer="-1.00" shape="452.39,508.45 452.62,513.86 463.33,513.41 463.11,508.01 452.39,508.45" type="building"/>
   <poly color="red" fill="1" id="165011906" layer="-1.00" shape="452.17,503.05 452.39,508.45 463.11,508.01 462.88,502.60 452.17,503.05" type="building"/>
   <poly color="red" fill="1" id="165011907" layer="-1.00" shape="451.94,497.64 452.17,503.05 462.88,502.60 462.66,497.20 451.94,497.64" type="building"/>
   <poly color="red" fill="1" id="165011908" layer="-1.00" shape="451.72,492.24 451.94,497.64 462.66,497.20 462.43,491.79 451.72,492.24" type="building"/>
   <poly color="red" fill="1" id="165011909" layer="-1.00" shape="449.01,461.48 449.72,478.65 460.43,478.21 459.71,461.04 449.01,461.48" type="building"/>
   <poly color="red" fill="1" id="165011910" layer="-1.00" shape="448.29,444.33 449.01,461.48 459.71,461.04 459.00,443.88 448.29,444.33" type="building"/>
   <poly color="red" fill="1" id="165011911" layer="-1.00" shape="447.58,427.16 448.29,444.33 459.00,443.88 458.28,426.71 447.58,427.16" type="building"/>
   <poly color="red" fill="1" id="165011912" layer="-1.00" shape="508.58,614.65 520.86,613.76 520.18,599.36 507.58,599.95 508.58,614.65" type="building"/>
   <poly color="red" fill="1" id="165011913" layer="-1.00" shape="336.41,676.97 342.89,676.71 342.36,663.56 335.89,663.81 336.41,676.97" type="building"/>
   <poly color="red" fill="1" id="165011914" layer="-1.00" shape="520.86,613.76 537.57,612.98 536.88,598.57 520.18,599.36 520.86,613.76" type="building"/>
   <poly color="red" fill="1" id="165011916" layer="-1.00" shape="342.89,676.71 349.36,676.46 348.84,663.30 342.36,663.56 342.89,676.71" type="building"/>
   <poly color="red" fill="1" id="165011921" layer="-1.00" shape="537.25,605.68 553.60,604.94 552.97,591.76 536.58,592.50 536.88,598.57 537.25,605.68" type="building"/>
   <poly color="red" fill="1" id="165011923" layer="-1.00" shape="349.36,676.46 355.84,676.20 355.32,663.04 348.84,663.30 349.36,676.46" type="building"/>
   <poly color="red" fill="1" id="165011924" layer="-1.00" shape="553.60,604.94 569.96,604.19 569.36,591.02 552.97,591.76 553.60,604.94" type="building"/>
   <poly color="red" fill="1" id="165011925" layer="-1.00" shape="471.10,666.71 477.71,666.29 476.89,653.58 470.28,654.00 471.10,666.71" type="building"/>
   <poly color="red" fill="1" id="165011926" layer="-1.00" shape="464.49,667.14 471.10,666.71 470.28,654.00 463.67,654.42 464.49,667.14" type="building"/>
   <poly color="red" fill="1" id="165011927" layer="-1.00" shape="457.88,667.56 464.49,667.14 463.67,654.42 457.06,654.84 457.88,667.56" type="building"/>
   <poly color="red" fill="1" id="165011928" layer="-1.00" shape="355.84,676.20 362.31,675.95 361.80,662.79 355.32,663.04 355.84,676.20" type="building"/>
   <poly color="red" fill="1" id="165011929" layer="-1.00" shape="368.47,410.58 395.12,408.97 394.45,397.87 367.80,399.48 368.47,410.58" type="building"/>
   <poly color="red" fill="1" id="165011930" layer="-1.00" shape="362.31,675.95 368.80,675.68 368.27,662.52 361.80,662.79 362.31,675.95" type="building"/>
   <poly color="red" fill="1" id="165011931" layer="-1.00" shape="368.80,675.68 375.27,675.43 374.75,662.27 368.27,662.52 368.80,675.68" type="building"/>
   <poly color="red" fill="1" id="165011932" layer="-1.00" shape="375.27,675.43 381.75,675.17 381.22,662.01 374.75,662.27 375.27,675.43" type="building"/>
   <poly color="red" fill="1" id="165011936" layer="-1.00" shape="451.27,667.98 457.88,667.56 457.06,654.84 450.46,655.27 451.27,667.98" type="building"/>
   <poly color="red" fill="1" id="165011937" layer="-1.00" shape="444.66,668.42 451.27,667.98 450.46,655.27 443.84,655.70 444.66,668.42" type="building"/>
   <poly color="red" fill="1" id="165011938" layer="-1.00" shape="438.05,668.84 444.66,668.42 443.84,655.70 437.23,656.12 438.05,668.84" type="building"/>
   <poly color="red" fill="1" id="165011939" layer="-1.00" shape="381.75,675.17 388.22,674.92 387.70,661.76 381.22,662.01 381.75,675.17" type="building"/>
   <poly color="red" fill="1" id="165011940" layer="-1.00" shape="388.22,674.92 394.70,674.66 394.18,661.50 387.70,661.76 388.22,674.92" type="building"/>
   <poly color="red" fill="1" id="165011941" layer="-1.00" shape="394.70,674.66 401.17,674.40 400.66,661.24 394.18,661.50 394.70,674.66" type="building"/>
   <poly color="red" fill="1" id="165011942" layer="-1.00" shape="431.44,669.26 438.05,668.84 437.23,656.12 430.62,656.55 431.44,669.26" type="building"/>
   <poly color="red" fill="1" id="165011943" layer="-1.00" shape="424.83,669.68 431.44,669.26 430.62,656.55 424.02,656.97 424.83,669.68" type="building"/>
   <poly color="red" fill="1" id="165011944" layer="-1.00" shape="418.22,670.11 424.83,669.68 424.02,656.97 417.41,657.39 418.22,670.11" type="building"/>
   <poly color="red" fill="1" id="165011945" layer="-1.00" shape="327.96,649.78 334.45,649.55 333.98,635.66 327.48,635.89 327.96,649.78" type="building"/>
   <poly color="red" fill="1" id="165011946" layer="-1.00" shape="334.45,649.55 340.94,649.33 340.46,635.44 333.98,635.66 334.45,649.55" type="building"/>
   <poly color="red" fill="1" id="165011948" layer="-1.00" shape="340.94,649.33 347.43,649.11 346.94,635.21 340.46,635.44 340.94,649.33" type="building"/>
   <poly color="red" fill="1" id="165015045" layer="-1.00" shape="605.22,602.91 623.20,602.06 622.40,585.21 604.42,586.06 605.22,602.91" type="building"/>
   <poly color="red" fill="1" id="165015046" layer="-1.00" shape="587.23,603.76 605.22,602.91 604.42,586.06 586.43,586.91 587.23,603.76" type="building"/>
   <poly color="red" fill="1" id="165015049" layer="-1.00" shape="607.25,705.63 624.44,705.07 623.97,690.78 606.79,691.35 607.25,705.63" type="building"/>
   <poly color="red" fill="1" id="165015050" layer="-1.00" shape="590.06,706.19 607.25,705.63 606.79,691.35 589.60,691.90 590.06,706.19" type="building"/>
   <poly color="red" fill="1" id="165015051" layer="-1.00" shape="572.88,706.75 590.06,706.19 589.60,691.90 572.41,692.47 572.88,706.75" type="building"/>
   <poly color="red" fill="1" id="165015052" layer="-1.00" shape="600.44,642.62 601.15,659.68 617.17,659.01 616.81,650.38 616.45,641.73 600.44,642.62" type="building"/>
   <poly color="red" fill="1" id="165015053" layer="-1.00" shape="531.01,718.31 531.23,732.76 546.82,732.07 546.48,724.27 546.19,717.65 531.01,718.31" type="building"/>
   <poly color="red" fill="1" id="165015054" layer="-1.00" shape="516.23,733.42 531.23,732.76 531.01,718.31 516.01,718.98 516.23,733.42" type="building"/>
   <poly color="red" fill="1" id="165015055" layer="-1.00" shape="516.23,733.42 516.01,718.98 499.68,719.70 500.32,734.12 516.23,733.42" type="building"/>
   <poly color="red" fill="1" id="165015056" layer="-1.00" shape="599.72,625.14 600.44,642.62 616.45,641.73 616.09,633.10 615.73,624.46 599.72,625.14" type="building"/>
   <poly color="red" fill="1" id="165015057" layer="-1.00" shape="561.33,641.11 562.01,658.27 577.58,657.65 576.89,640.49 561.33,641.11" type="building"/>
   <poly color="red" fill="1" id="165015058" layer="-1.00" shape="560.64,624.03 561.33,641.11 576.89,640.49 576.21,623.42 560.64,624.03" type="building"/>
   <poly color="red" fill="1" id="165015059" layer="-1.00" shape="623.20,602.06 641.19,601.21 640.39,584.36 622.40,585.21 623.20,602.06" type="building"/>
   <poly color="207,245,201" fill="0" id="176431514" layer="-2.00" shape="117.70,804.71 73.61,800.89" type="tourism"/>
   <poly color="207,245,201" fill="1" id="190246050" layer="-2.00" shape="114.00,162.51 99.95,77.16 169.20,65.81 183.25,151.16 114.00,162.51" type="leisure"/>
   <poly color="79,230,125" fill="1" id="190246050#1" layer="-2.00" shape="114.00,162.51 99.95,77.16 169.20,65.81 183.25,151.16 114.00,162.51" type="sport"/>
   <poly color="red" fill="1" id="192160695" layer="-1.00" shape="0.76,40.32 4.50,62.63 18.81,60.23 15.06,37.93 0.76,40.32" type="building"/>
   <poly color="red" fill="1" id="192160696" layer="-1.00" shape="-2.99,18.00 0.76,40.32 15.06,37.93 11.32,15.61 -2.99,18.00" type="building"/>
   <poly color="red" fill="1" id="192160777" layer="-1.00" shape="101.05,10.18 84.44,12.93 86.40,24.69 103.01,21.93 101.05,10.18" type="building"/>
   <poly color="red" fill="1" id="192160781" layer="-1.00" shape="84.44,12.93 67.84,15.69 69.80,27.45 86.40,24.69 84.44,12.93" type="building"/>
   <poly color="red" fill="1" id="192160783" layer="-1.00" shape="67.84,15.69 51.23,18.45 53.19,30.20 69.80,27.45 67.84,15.69" type="building"/>
   <poly color="red" fill="1" id="194177038" layer="-1.00" shape="291.32,522.65 291.11,516.97 294.60,516.84 294.26,507.48 287.37,507.74 280.34,508.00 280.89,523.03 291.32,522.65" type="building"/>
   <poly color="red" fill="1" id="194177039" layer="-1.00" shape="166.29,566.76 165.94,556.11 151.15,556.59 151.50,567.25 166.29,566.76" type="building"/>
   <poly color="red" fill="1" id="194177041" layer="-1.00" shape="236.38,525.05 235.96,514.32 246.80,513.89 247.23,524.62 236.38,525.05" type="building"/>
   <poly color="red" fill="1" id="194177042" layer="-1.00" shape="245.62,509.52 245.47,505.47 243.28,505.55 242.87,494.86 230.89,495.32 231.46,510.07 245.62,509.52" type="building"/>
   <poly color="red" fill="1" id="194177044" layer="-1.00" shape="269.64,523.59 269.06,508.59 265.53,508.73 257.27,509.05 257.86,524.04 269.64,523.59" type="building"/>
   <poly color="red" fill="1" id="194177046" layer="-1.00" shape="226.05,525.56 225.48,510.66 223.86,510.72 213.79,511.11 214.37,526.01 226.05,525.56" type="building"/>
   <poly color="184,184,179" fill="1" id="194177052" layer="-1.00" shape="299.19,480.63 330.10,479.02 329.11,457.35 328.12,435.67 294.11,436.95 294.52,440.25 299.19,480.63" type="parking"/>
   <poly color="red" fill="0" id="209271846" layer="-1.00" shape="10.59,448.32 10.01,442.43" type="building"/>
   <poly color="red" fill="0" id="209271847" layer="-1.00" shape="9.46,436.42 8.88,430.53" type="building"/>
   <poly color="red" fill="0" id="209271848" layer="-1.00" shape="7.57,423.52 6.56,412.98" type="building"/>
   <poly color="red" fill="1" id="209271849" layer="-1.00" shape="34.19,423.97 33.86,418.70 52.07,416.42 53.51,429.88 37.31,431.67 36.31,423.71 34.19,423.97" type="building"/>
   <poly color="red" fill="1" id="209271850" layer="-1.00" shape="25.32,446.34 38.95,444.63 37.31,431.67 36.31,423.71 34.19,423.97 22.68,425.42 25.32,446.34" type="building"/>
   <poly color="red" fill="1" id="209271851" layer="-1.00" shape="53.51,429.88 70.84,428.43 69.93,418.61 71.76,418.54 71.05,413.85 52.07,416.42 53.51,429.88" type="building"/>
   <poly color="red" fill="0" id="209271852" layer="-1.00" shape="2.61,481.92 1.52,471.43" type="building"/>
   <poly color="red" fill="1" id="209271854" layer="-1.00" shape="35.17,347.15 55.52,344.53 53.96,332.49 33.61,335.11 35.17,347.15" type="building"/>
   <poly color="red" fill="1" id="209271855" layer="-1.00" shape="39.23,389.53 59.59,386.90 58.03,374.86 37.67,377.49 39.23,389.53" type="building"/>
   <poly color="red" fill="1" id="209271856" layer="-1.00" shape="19.59,392.06 39.23,389.53 37.67,377.49 18.03,380.03 19.59,392.06" type="building"/>
   <poly color="red" fill="1" id="209271858" layer="-1.00" shape="15.52,349.69 35.17,347.15 33.61,335.11 13.96,337.65 15.52,349.69" type="building"/>