<?xml version="1.0" encoding="utf-8"?><!-- generated on 10/11/17 17:58:05 by SUMO netconvert Version 0.25.0
<?xml version="1.0" encoding="UTF-8"?>

<configuration xmlns:xsi="http://www.w3.org/2001/XMLSchema-instance" xsi:noNamespaceSchemaLocation="http://sumo.dlr.de/xsd/netconvertConfiguration.xsd">

    <input>
        <type-files value="osmNetconvert.typ.xml"/>
        <osm-files value="R_Westheim_urban_800.osm"/>
    </input>

    <output>
        <output-file value="R_Westheim_urban_800.net.xml"/>
    </output>

    <projection>
        <proj.utm value="true"/>
    </projection>

    <edge_removal>
        <remove-edges.by-type value="highway.track,highway.unsurfaced,highway.raceway,highway.bridleway,highway.path,highway.footway,highway.pedestrian,highway.cycleway,highway.step,highway.steps,highway.stairs,highway.bus_guideway,highway.ford,railway.rail,railway.tram,railway.light_rail,railway.subway,railway.preserved,railway.narrow_gauge,railway.monorail,railway.funicular"/>
    </edge_removal>

</configuration>
-->
<net version="0.25">
   <location convBoundary="0.00,0.00,791.55,799.24" netOffset="-284955.84,-5433920.65" origBoundary="12.058270,49.020760,12.069248,49.027963" projParameter="+proj=utm +zone=33 +ellps=WGS84 +datum=WGS84 +units=m +no_defs"/>
   <type allow="pedestrian" id="highway.bridleway" numLanes="1" oneway="1" priority="1" speed="2.78" width="2.00"/>
   <type allow="bus" id="highway.bus_guideway" numLanes="1" oneway="1" priority="1" speed="8.33"/>
   <type allow="bicycle" id="highway.cycleway" numLanes="1" oneway="0" priority="1" speed="5.56" width="1.00"/>
   <type allow="pedestrian" id="highway.footway" numLanes="1" oneway="1" priority="1" speed="8.33" width="2.00"/>
   <type allow="army" id="highway.ford" numLanes="1" oneway="0" priority="1" speed="2.78"/>
   <type disallow="tram rail_urban rail rail_electric ship" id="highway.living_street" numLanes="1" oneway="0" priority="3" speed="2.78"/>
   <type allow="private emergency authority army vip passenger hov taxi bus coach delivery truck trailer motorcycle evehicle custom1 custom2" id="highway.motorway" numLanes="2" oneway="1" priority="13" speed="44.44"/>
   <type allow="private emergency authority army vip passenger hov taxi bus coach delivery truck trailer motorcycle evehicle custom1 custom2" id="highway.motorway_link" numLanes="1" oneway="1" priority="12" speed="22.22"/>
   <type allow="bicycle pedestrian" id="highway.path" numLanes="1" oneway="1" priority="1" speed="2.78" width="2.00"/>
   <type allow="pedestrian" id="highway.pedestrian" numLanes="1" oneway="1" priority="1" speed="8.33" width="2.00"/>
   <type disallow="tram rail_urban rail rail_electric ship" id="highway.primary" numLanes="2" oneway="0" priority="9" speed="27.78"/>
   <type disallow="tram rail_urban rail rail_electric ship" id="highway.primary_link" numLanes="1" oneway="0" priority="8" speed="22.22"/>
   <type allow="vip" id="highway.raceway" numLanes="2" oneway="0" priority="14" speed="83.33"/>
   <type disallow="tram rail_urban rail rail_electric ship" id="highway.residential" numLanes="1" oneway="0" priority="4" speed="13.89"/>
   <type disallow="tram rail_urban rail rail_electric ship" id="highway.secondary" numLanes="2" oneway="0" priority="7" speed="27.78"/>
   <type disallow="tram rail_urban rail rail_electric ship" id="highway.secondary_link" numLanes="1" oneway="0" priority="6" speed="22.22"/>
   <type allow="delivery bicycle pedestrian" id="highway.service" numLanes="1" oneway="0" priority="2" speed="5.56"/>
   <type disallow="tram rail_urban rail rail_electric ship" id="highway.services" numLanes="1" oneway="0" priority="1" speed="8.33"/>
   <type allow="pedestrian" id="highway.stairs" numLanes="1" oneway="1" priority="1" speed="1.39" width="2.00"/>
   <type allow="pedestrian" id="highway.step" numLanes="1" oneway="1" priority="1" speed="1.39" width="2.00"/>
   <type allow="pedestrian" id="highway.steps" numLanes="1" oneway="1" priority="1" speed="1.39" width="2.00"/>
   <type disallow="tram rail_urban rail rail_electric ship" id="highway.tertiary" numLanes="1" oneway="0" priority="6" speed="22.22"/>
   <type disallow="tram rail_urban rail rail_electric ship" id="highway.tertiary_link" numLanes="1" oneway="0" priority="5" speed="22.22"/>
   <type disallow="tram rail_urban rail rail_electric ship" id="highway.track" numLanes="1" oneway="0" priority="1" speed="5.56"/>
   <type disallow="tram rail_urban rail rail_electric bicycle pedestrian ship" id="highway.trunk" numLanes="2" oneway="0" priority="11" speed="27.78"/>
   <type disallow="tram rail_urban rail rail_electric bicycle pedestrian ship" id="highway.trunk_link" numLanes="1" oneway="0" priority="10" speed="22.22"/>
   <type disallow="tram rail_urban rail rail_electric ship" id="highway.unclassified" numLanes="1" oneway="0" priority="5" speed="13.89"/>
   <type disallow="tram rail_urban rail rail_electric ship" id="highway.unsurfaced" numLanes="1" oneway="0" priority="1" speed="8.33"/>
   <type allow="rail_urban" id="railway.light_rail" numLanes="1" oneway="1" priority="15" speed="27.78"/>
   <type allow="rail" id="railway.preserved" numLanes="1" oneway="1" priority="15" speed="27.78"/>
   <type allow="rail rail_electric" id="railway.rail" numLanes="1" oneway="1" priority="15" speed="83.33"/>
   <type allow="rail_urban" id="railway.subway" numLanes="1" oneway="1" priority="15" speed="27.78"/>
   <type allow="tram" id="railway.tram" numLanes="1" oneway="1" priority="15" speed="13.89"/>
   <edge function="internal" id=":1101799333_0">
      <lane allow="delivery bicycle pedestrian" id=":1101799333_0_0" index="0" length="0.21" shape="741.66,688.18 741.62,687.97" speed="5.56"/>
   </edge>
   <edge function="internal" id=":1101799333_1">
      <lane allow="delivery bicycle pedestrian" id=":1101799333_1_0" index="0" length="2.41" shape="741.66,688.18 742.33,686.85 743.09,686.34" speed="5.56"/>
   </edge>
   <edge function="internal" id=":1101799333_4">
      <lane id=":1101799333_4_0" index="0" length="2.41" shape="743.09,686.34 743.96,686.65 744.93,687.78" speed="5.56"/>
   </edge>
   <edge function="internal" id=":1101799333_2">
      <lane allow="delivery bicycle pedestrian" id=":1101799333_2_0" index="0" length="0.66" shape="744.81,687.14 744.93,687.78" speed="5.56"/>
   </edge>
   <edge function="internal" id=":1101799333_3">
      <lane allow="delivery bicycle pedestrian" id=":1101799333_3_0" index="0" length="2.41" shape="744.81,687.14 744.32,688.54 743.63,689.15" speed="5.56"/>
   </edge>
   <edge function="internal" id=":1101799333_5">
      <lane id=":1101799333_5_0" index="0" length="2.41" shape="743.63,689.15 742.73,688.96 741.62,687.97" speed="5.56"/>
   </edge>
   <edge function="internal" id=":1101799363_0">
      <lane allow="delivery bicycle pedestrian" id=":1101799363_0_0" index="0" length="9.50" shape="751.18,712.23 741.78,713.64" speed="5.56"/>
   </edge>
   <edge function="internal" id=":1101799363_1">
      <lane allow="delivery bicycle pedestrian" id=":1101799363_1_0" index="0" length="10.46" shape="751.18,712.23 748.30,712.25 746.13,711.34 744.67,709.49 743.92,706.71" speed="5.56"/>
   </edge>
   <edge function="internal" id=":1101799363_2">
      <lane allow="delivery bicycle pedestrian" id=":1101799363_2_0" index="0" length="4.82" shape="751.18,712.23 749.83,711.60 749.30,710.84 749.59,709.97 750.69,708.97" speed="5.56"/>
   </edge>
   <edge function="internal" id=":1101799363_3">
      <lane allow="delivery bicycle pedestrian" id=":1101799363_3_0" index="0" length="5.03" shape="747.20,706.31 747.56,707.65 748.26,708.54 749.31,708.98 750.69,708.97" speed="5.56"/>
   </edge>
   <edge function="internal" id=":1101799363_4">
      <lane allow="delivery bicycle pedestrian" id=":1101799363_4_0" index="0" length="10.33" shape="747.20,706.31 747.15,709.17 746.24,711.34 744.44,712.83 741.78,713.64" speed="5.56"/>
   </edge>
   <edge function="internal" id=":1101799363_5">
      <lane allow="delivery bicycle pedestrian" id=":1101799363_5_0" index="0" length="4.82" shape="747.20,706.31 746.53,707.64 745.76,708.15 744.89,707.84 743.92,706.71" speed="5.56"/>
   </edge>
   <edge function="internal" id=":1101799363_6">
      <lane allow="delivery bicycle pedestrian" id=":1101799363_6_0" index="0" length="5.11" shape="741.29,710.38 742.59,709.98 743.46,709.24 743.91,708.15 743.92,706.71" speed="5.56"/>
   </edge>
   <edge function="internal" id=":1101799363_7">
      <lane allow="delivery bicycle pedestrian" id=":1101799363_7_0" index="0" length="9.50" shape="741.29,710.38 750.69,708.97" speed="5.56"/>
   </edge>
   <edge function="internal" id=":1101799363_8">
      <lane allow="delivery bicycle pedestrian" id=":1101799363_8_0" index="0" length="4.82" shape="741.29,710.38 742.64,711.01 743.17,711.77 742.88,712.64 741.78,713.64" speed="5.56"/>
   </edge>
   <edge function="internal" id=":1101816534_0">
      <lane disallow="tram rail_urban rail rail_electric ship" id=":1101816534_0_0" index="0" length="0.10" shape="456.29,238.37 456.29,238.38" speed="13.89"/>
   </edge>
   <edge function="internal" id=":1101816534_1">
      <lane disallow="tram rail_urban rail rail_electric ship" id=":1101816534_1_0" index="0" length="2.41" shape="456.29,238.37 456.98,237.05 457.75,236.56" speed="13.89"/>
   </edge>
   <edge function="internal" id=":1101816534_4">
      <lane id=":1101816534_4_0" index="0" length="2.41" shape="457.75,236.56 458.62,236.88 459.57,238.02" speed="13.89"/>
   </edge>
   <edge function="internal" id=":1101816534_2">
      <lane disallow="tram rail_urban rail rail_electric ship" id=":1101816534_2_0" index="0" length="0.10" shape="459.57,238.02 459.57,238.02" speed="13.89"/>
   </edge>
   <edge function="internal" id=":1101816534_3">
      <lane disallow="tram rail_urban rail rail_electric ship" id=":1101816534_3_0" index="0" length="2.41" shape="459.57,238.02 458.88,239.34 458.10,239.84" speed="13.89"/>
   </edge>
   <edge function="internal" id=":1101816534_5">
      <lane id=":1101816534_5_0" index="0" length="2.41" shape="458.10,239.84 457.24,239.52 456.29,238.38" speed="13.89"/>
   </edge>
   <edge function="internal" id=":1101832282_0">
      <lane allow="delivery bicycle pedestrian" id=":1101832282_0_0" index="0" length="4.82" shape="-1.65,138.36 -0.91,137.07 -0.12,136.60 0.73,136.95 1.65,138.12" speed="5.56"/>
   </edge>
   <edge function="internal" id=":1101832524_0">
      <lane allow="delivery bicycle pedestrian" id=":1101832524_0_0" index="0" length="0.10" shape="-0.27,156.91 -0.27,156.91" speed="5.56"/>
   </edge>
   <edge function="internal" id=":1101832524_1">
      <lane allow="delivery bicycle pedestrian" id=":1101832524_1_0" index="0" length="2.41" shape="-0.27,156.91 0.46,155.61 1.26,155.14" speed="5.56"/>
   </edge>
   <edge function="internal" id=":1101832524_4">
      <lane id=":1101832524_4_0" index="0" length="2.41" shape="1.26,155.14 2.11,155.49 3.02,156.67" speed="5.56"/>
   </edge>
   <edge function="internal" id=":1101832524_2">
      <lane allow="delivery bicycle pedestrian" id=":1101832524_2_0" index="0" length="0.10" shape="3.02,156.67 3.02,156.67" speed="5.56"/>
   </edge>
   <edge function="internal" id=":1101832524_3">
      <lane allow="delivery bicycle pedestrian" id=":1101832524_3_0" index="0" length="2.41" shape="3.02,156.67 2.29,157.96 1.50,158.43" speed="5.56"/>
   </edge>
   <edge function="internal" id=":1101832524_5">
      <lane id=":1101832524_5_0" index="0" length="2.41" shape="1.50,158.43 0.65,158.08 -0.27,156.91" speed="5.56"/>
   </edge>
   <edge function="internal" id=":1101832598_0">
      <lane allow="delivery bicycle pedestrian" id=":1101832598_0_0" index="0" length="7.44" shape="7.58,201.97 5.59,201.67 4.11,200.82 3.16,199.41 2.74,197.43" speed="9.73"/>
   </edge>
   <edge function="internal" id=":1101832598_1">
      <lane disallow="tram rail_urban rail rail_electric ship" id=":1101832598_1_0" index="0" length="4.82" shape="7.58,201.97 6.35,201.14 5.95,200.31 6.37,199.49 7.61,198.67" speed="13.89"/>
   </edge>
   <edge function="internal" id=":1101832598_2">
      <lane disallow="tram rail_urban rail rail_electric ship" id=":1101832598_2_0" index="0" length="2.43" shape="6.03,197.19 6.17,197.83 6.48,198.30 6.96,198.58 7.61,198.67" speed="9.73"/>
   </edge>
   <edge function="internal" id=":1101832598_3">
      <lane allow="delivery bicycle pedestrian" id=":1101832598_3_0" index="0" length="4.82" shape="6.03,197.19 5.30,198.49 4.50,198.96 3.65,198.61 2.74,197.43" speed="5.56"/>
   </edge>
   <edge function="internal" id=":1101930793_0">
      <lane allow="delivery bicycle pedestrian" id=":1101930793_0_0" index="0" length="4.82" shape="51.97,798.02 51.05,799.19 50.20,799.54 49.41,799.07 48.68,797.77" speed="5.56"/>
   </edge>
   <edge function="internal" id=":1101938967_0">
      <lane allow="delivery bicycle pedestrian" id=":1101938967_0_0" index="0" length="5.03" shape="332.97,72.39 332.56,71.07 331.83,70.21 330.77,69.81 329.39,69.87" speed="6.95"/>
   </edge>
   <edge function="internal" id=":1101938967_1">
      <lane disallow="tram rail_urban rail rail_electric ship" id=":1101938967_1_0" index="0" length="9.47" shape="332.97,72.39 331.57,63.03" speed="8.33"/>
   </edge>
   <edge function="internal" id=":1101938967_2">
      <lane disallow="tram rail_urban rail rail_electric ship" id=":1101938967_2_0" index="0" length="2.41" shape="332.97,72.39 333.59,71.04 334.34,70.50" speed="8.33"/>
   </edge>
   <edge function="internal" id=":1101938967_9">
      <lane id=":1101938967_9_0" index="0" length="2.41" shape="334.34,70.50 335.22,70.78 336.23,71.87" speed="8.33"/>
   </edge>
   <edge function="internal" id=":1101938967_3">
      <lane disallow="tram rail_urban rail rail_electric ship" id=":1101938967_3_0" index="0" length="9.40" shape="334.84,62.58 336.23,71.87" speed="8.33"/>
   </edge>
   <edge function="internal" id=":1101938967_4">
      <lane allow="delivery bicycle pedestrian" id=":1101938967_4_0" index="0" length="5.07" shape="334.84,62.58 334.82,65.33 333.90,67.46" speed="6.95"/>
   </edge>
   <edge function="internal" id=":1101938967_5">
      <lane disallow="tram rail_urban rail rail_electric ship" id=":1101938967_5_0" index="0" length="2.41" shape="334.84,62.58 334.19,63.91 333.43,64.44" speed="8.33"/>
   </edge>
   <edge function="internal" id=":1101938967_10">
      <lane id=":1101938967_10_0" index="0" length="5.21" shape="333.90,67.46 332.09,68.97 329.39,69.87" speed="6.95"/>
   </edge>
   <edge function="internal" id=":1101938967_11">
      <lane id=":1101938967_11_0" index="0" length="2.41" shape="333.43,64.44 332.56,64.14 331.57,63.03" speed="8.33"/>
   </edge>
   <edge function="internal" id=":1101938967_6">
      <lane disallow="tram rail_urban rail rail_electric ship" id=":1101938967_6_0" index="0" length="5.13" shape="328.79,66.62 330.16,66.17 331.08,65.43 331.55,64.38 331.57,63.03" speed="6.95"/>
   </edge>
   <edge function="internal" id=":1101938967_7">
      <lane disallow="tram rail_urban rail rail_electric ship" id=":1101938967_7_0" index="0" length="10.45" shape="328.79,66.62 331.66,66.50 333.85,67.34 335.38,69.13 336.23,71.87" speed="6.95"/>
   </edge>
   <edge function="internal" id=":1101938967_8">
      <lane allow="delivery bicycle pedestrian" id=":1101938967_8_0" index="0" length="4.82" shape="328.79,66.62 330.15,67.21 330.71,67.94 330.45,68.83 329.39,69.87" speed="5.56"/>
   </edge>
   <edge function="internal" id=":1102081654_0">
      <lane disallow="tram rail_urban rail rail_electric ship" id=":1102081654_0_0" index="0" length="0.10" shape="192.01,488.38 192.01,488.38" speed="8.33"/>
   </edge>
   <edge function="internal" id=":1102081654_1">
      <lane disallow="tram rail_urban rail rail_electric ship" id=":1102081654_1_0" index="0" length="2.41" shape="192.01,488.38 192.67,487.04 193.44,486.53" speed="8.33"/>
   </edge>
   <edge function="internal" id=":1102081654_4">
      <lane id=":1102081654_4_0" index="0" length="2.41" shape="193.44,486.53 194.31,486.83 195.29,487.95" speed="8.33"/>
   </edge>
   <edge function="internal" id=":1102081654_2">
      <lane disallow="tram rail_urban rail rail_electric ship" id=":1102081654_2_0" index="0" length="0.10" shape="195.29,488.01 195.29,487.95" speed="8.33"/>
   </edge>
   <edge function="internal" id=":1102081654_3">
      <lane disallow="tram rail_urban rail rail_electric ship" id=":1102081654_3_0" index="0" length="2.41" shape="195.29,488.01 194.61,489.33 193.84,489.83" speed="8.33"/>
   </edge>
   <edge function="internal" id=":1102081654_5">
      <lane id=":1102081654_5_0" index="0" length="2.41" shape="193.84,489.83 192.97,489.51 192.01,488.38" speed="8.33"/>
   </edge>
   <edge function="internal" id=":1115385227_0">
      <lane disallow="tram rail_urban rail rail_electric ship" id=":1115385227_0_0" index="0" length="9.36" shape="343.04,132.06 341.59,122.81" speed="8.33"/>
   </edge>
   <edge function="internal" id=":1115385227_1">
      <lane allow="delivery bicycle pedestrian" id=":1115385227_1_0" index="0" length="5.23" shape="343.04,132.06 343.05,129.10 343.97,127.03" speed="6.95"/>
   </edge>
   <edge function="internal" id=":1115385227_2">
      <lane disallow="tram rail_urban rail rail_electric ship" id=":1115385227_2_0" index="0" length="2.41" shape="343.04,132.06 343.68,130.72 344.44,130.20" speed="8.33"/>
   </edge>
   <edge function="internal" id=":1115385227_9">
      <lane id=":1115385227_9_0" index="0" length="5.46" shape="343.97,127.03 344.02,126.92 345.95,125.52 348.85,124.91" speed="6.95"/>
   </edge>
   <edge function="internal" id=":1115385227_10">
      <lane id=":1115385227_10_0" index="0" length="2.41" shape="344.44,130.20 345.31,130.49 346.30,131.60" speed="8.33"/>
   </edge>
   <edge function="internal" id=":1115385227_3">
      <lane disallow="tram rail_urban rail rail_electric ship" id=":1115385227_3_0" index="0" length="5.09" shape="349.07,128.20 347.69,128.49 346.77,129.16 346.31,130.19 346.30,131.60" speed="6.95"/>
   </edge>
   <edge function="internal" id=":1115385227_4">
      <lane disallow="tram rail_urban rail rail_electric ship" id=":1115385227_4_0" index="0" length="10.28" shape="349.07,128.20 346.18,128.03 343.97,127.07 342.44,125.33 341.59,122.81" speed="6.95"/>
   </edge>
   <edge function="internal" id=":1115385227_5">
      <lane allow="delivery bicycle pedestrian" id=":1115385227_5_0" index="0" length="4.82" shape="349.07,128.20 347.78,127.46 347.31,126.66 347.67,125.81 348.85,124.91" speed="5.56"/>
   </edge>
   <edge function="internal" id=":1115385227_6">
      <lane allow="delivery bicycle pedestrian" id=":1115385227_6_0" index="0" length="5.35" shape="344.84,122.24 345.28,123.50 346.10,124.36 347.28,124.83 348.85,124.91" speed="6.95"/>
   </edge>
   <edge function="internal" id=":1115385227_7">
      <lane disallow="tram rail_urban rail rail_electric ship" id=":1115385227_7_0" index="0" length="9.47" shape="344.84,122.24 346.30,131.60" speed="8.33"/>
   </edge>
   <edge function="internal" id=":1115385227_8">
      <lane disallow="tram rail_urban rail rail_electric ship" id=":1115385227_8_0" index="0" length="2.41" shape="344.84,122.24 344.24,123.60 343.50,124.15" speed="8.33"/>
   </edge>
   <edge function="internal" id=":1115385227_11">
      <lane id=":1115385227_11_0" index="0" length="2.41" shape="343.50,124.15 342.62,123.89 341.59,122.81" speed="8.33"/>
   </edge>
   <edge function="internal" id=":1115385263_0">
      <lane disallow="tram rail_urban rail rail_electric ship" id=":1115385263_0_0" index="0" length="9.59" shape="335.47,87.58 333.89,78.12" speed="8.33"/>
   </edge>
   <edge function="internal" id=":1115385263_1">
      <lane allow="delivery bicycle pedestrian" id=":1115385263_1_0" index="0" length="5.43" shape="335.47,87.58 335.38,84.56 336.31,82.33" speed="6.95"/>
   </edge>
   <edge function="internal" id=":1115385263_2">
      <lane disallow="tram rail_urban rail rail_electric ship" id=":1115385263_2_0" index="0" length="2.41" shape="335.47,87.58 336.07,86.22 336.82,85.67" speed="8.33"/>
   </edge>
   <edge function="internal" id=":1115385263_9">
      <lane id=":1115385263_9_0" index="0" length="5.43" shape="336.31,82.33 338.25,80.90 341.21,80.27" speed="6.95"/>
   </edge>
   <edge function="internal" id=":1115385263_10">
      <lane id=":1115385263_10_0" index="0" length="2.41" shape="336.82,85.67 337.70,85.94 338.72,87.01" speed="8.33"/>
   </edge>
   <edge function="internal" id=":1115385263_3">
      <lane disallow="tram rail_urban rail rail_electric ship" id=":1115385263_3_0" index="0" length="5.13" shape="341.43,83.57 340.04,83.86 339.12,84.54 338.68,85.59 338.72,87.01" speed="6.95"/>
   </edge>
   <edge function="internal" id=":1115385263_4">
      <lane disallow="tram rail_urban rail rail_electric ship" id=":1115385263_4_0" index="0" length="10.40" shape="341.43,83.57 338.49,83.39 336.25,82.43 334.71,80.67 333.89,78.12" speed="6.95"/>
   </edge>
   <edge function="internal" id=":1115385263_5">
      <lane allow="delivery bicycle pedestrian" id=":1115385263_5_0" index="0" length="4.82" shape="341.43,83.57 340.14,82.83 339.67,82.03 340.03,81.18 341.21,80.27" speed="5.56"/>
   </edge>
   <edge function="internal" id=":1115385263_6">
      <lane allow="delivery bicycle pedestrian" id=":1115385263_6_0" index="0" length="5.43" shape="337.14,77.59 337.57,78.86 338.39,79.72 339.61,80.20 341.21,80.27" speed="6.95"/>
   </edge>
   <edge function="internal" id=":1115385263_7">
      <lane disallow="tram rail_urban rail rail_electric ship" id=":1115385263_7_0" index="0" length="9.55" shape="337.14,77.59 338.72,87.01" speed="8.33"/>
   </edge>
   <edge function="internal" id=":1115385263_8">
      <lane disallow="tram rail_urban rail rail_electric ship" id=":1115385263_8_0" index="0" length="2.41" shape="337.14,77.59 336.53,78.95 335.78,79.48" speed="8.33"/>
   </edge>
   <edge function="internal" id=":1115385263_11">
      <lane id=":1115385263_11_0" index="0" length="2.41" shape="335.78,79.48 334.90,79.21 333.89,78.12" speed="8.33"/>
   </edge>
   <edge function="internal" id=":1330974466_0">
      <lane allow="delivery bicycle pedestrian" id=":1330974466_0_0" index="0" length="4.82" shape="255.12,168.24 255.70,166.87 256.44,166.31 257.33,166.57 258.37,167.63" speed="5.56"/>
   </edge>
   <edge function="internal" id=":1330974473_0">
      <lane disallow="tram rail_urban rail rail_electric ship" id=":1330974473_0_0" index="0" length="7.29" shape="267.85,201.55 260.66,202.74" speed="13.89"/>
   </edge>
   <edge function="internal" id=":1330974473_1">
      <lane allow="delivery bicycle pedestrian" id=":1330974473_1_0" index="0" length="5.26" shape="267.85,201.55 265.06,201.62 262.89,200.75 262.80,200.65" speed="9.73"/>
   </edge>
   <edge function="internal" id=":1330974473_2">
      <lane disallow="tram rail_urban rail rail_electric ship" id=":1330974473_2_0" index="0" length="2.41" shape="267.85,201.55 266.50,200.95 265.95,200.20" speed="13.89"/>
   </edge>
   <edge function="internal" id=":1330974473_9">
      <lane id=":1330974473_9_0" index="0" length="5.10" shape="262.80,200.65 261.35,198.96 260.43,196.24" speed="9.73"/>
   </edge>
   <edge function="internal" id=":1330974473_10">
      <lane id=":1330974473_10_0" index="0" length="2.41" shape="265.95,200.20 266.22,199.32 267.30,198.30" speed="13.89"/>
   </edge>
   <edge function="internal" id=":1330974473_3">
      <lane disallow="tram rail_urban rail rail_electric ship" id=":1330974473_3_0" index="0" length="5.12" shape="263.67,195.63 264.12,196.99 264.88,197.89 265.94,198.32 267.30,198.30" speed="9.73"/>
   </edge>
   <edge function="internal" id=":1330974473_4">
      <lane disallow="tram rail_urban rail rail_electric ship" id=":1330974473_4_0" index="0" length="8.75" shape="263.67,195.63 263.94,198.49 263.53,200.63 262.44,202.05 260.66,202.74" speed="9.73"/>
   </edge>
   <edge function="internal" id=":1330974473_5">
      <lane allow="delivery bicycle pedestrian" id=":1330974473_5_0" index="0" length="4.82" shape="263.67,195.63 263.09,197.00 262.36,197.56 261.47,197.31 260.43,196.24" speed="5.56"/>
   </edge>
   <edge function="internal" id=":1330974473_6">
      <lane allow="delivery bicycle pedestrian" id=":1330974473_6_0" index="0" length="4.88" shape="258.10,199.80 259.34,199.40 260.14,198.68 260.50,197.63 260.43,196.24" speed="9.73"/>
   </edge>
   <edge function="internal" id=":1330974473_7">
      <lane disallow="tram rail_urban rail rail_electric ship" id=":1330974473_7_0" index="0" length="9.32" shape="258.10,199.80 267.30,198.30" speed="13.89"/>
   </edge>
   <edge function="internal" id=":1330974473_8">
      <lane disallow="tram rail_urban rail rail_electric ship" id=":1330974473_8_0" index="0" length="3.94" shape="258.10,199.80 259.84,199.57 260.85,199.98 261.13,201.04" speed="13.89"/>
   </edge>
   <edge function="internal" id=":1330974473_11">
      <lane id=":1330974473_11_0" index="0" length="1.76" shape="261.13,201.04 260.66,202.74" speed="13.89"/>
   </edge>
   <edge function="internal" id=":1330995059_0">
      <lane disallow="tram rail_urban rail rail_electric ship" id=":1330995059_0_0" index="0" length="4.82" shape="24.39,73.83 25.00,72.48 25.75,71.93 26.63,72.20 27.65,73.29" speed="2.78"/>
   </edge>
   <edge function="internal" id=":1367307602_0">
      <lane allow="delivery bicycle pedestrian" id=":1367307602_0_0" index="0" length="4.82" shape="733.54,260.36 734.34,259.11 735.16,258.68 735.99,259.08 736.84,260.30" speed="5.56"/>
   </edge>
   <edge function="internal" id=":1416070464_0">
      <lane disallow="tram rail_urban rail rail_electric ship" id=":1416070464_0_0" index="0" length="0.10" shape="103.45,210.83 103.44,210.83" speed="13.89"/>
   </edge>
   <edge function="internal" id=":1416070464_1">
      <lane disallow="tram rail_urban rail rail_electric ship" id=":1416070464_1_0" index="0" length="2.41" shape="103.45,210.83 102.31,209.88 101.98,209.01" speed="13.89"/>
   </edge>
   <edge function="internal" id=":1416070464_4">
      <lane id=":1416070464_4_0" index="0" length="2.41" shape="101.98,209.01 102.48,208.24 103.80,207.55" speed="13.89"/>
   </edge>
   <edge function="internal" id=":1416070464_2">
      <lane disallow="tram rail_urban rail rail_electric ship" id=":1416070464_2_0" index="0" length="0.10" shape="103.86,207.56 103.80,207.55" speed="13.89"/>
   </edge>
   <edge function="internal" id=":1416070464_3">
      <lane disallow="tram rail_urban rail rail_electric ship" id=":1416070464_3_0" index="0" length="2.41" shape="103.86,207.56 104.98,208.53 105.29,209.40" speed="13.89"/>
   </edge>
   <edge function="internal" id=":1416070464_5">
      <lane id=":1416070464_5_0" index="0" length="2.41" shape="105.29,209.40 104.77,210.17 103.44,210.83" speed="13.89"/>
   </edge>
   <edge function="internal" id=":1566191972_0">
      <lane allow="delivery bicycle pedestrian" id=":1566191972_0_0" index="0" length="0.10" shape="558.95,747.64 558.93,747.53" speed="5.56"/>
   </edge>
   <edge function="internal" id=":1566191972_1">
      <lane allow="delivery bicycle pedestrian" id=":1566191972_1_0" index="0" length="2.41" shape="558.95,747.64 559.60,746.30 560.37,745.78" speed="5.56"/>
   </edge>
   <edge function="internal" id=":1566191972_4">
      <lane id=":1566191972_4_0" index="0" length="2.41" shape="560.37,745.78 561.24,746.08 562.22,747.20" speed="5.56"/>
   </edge>
   <edge function="internal" id=":1566191972_2">
      <lane allow="delivery bicycle pedestrian" id=":1566191972_2_0" index="0" length="0.31" shape="562.17,746.89 562.22,747.20" speed="5.56"/>
   </edge>
   <edge function="internal" id=":1566191972_3">
      <lane allow="delivery bicycle pedestrian" id=":1566191972_3_0" index="0" length="2.41" shape="562.17,746.89 561.60,748.27 560.87,748.83" speed="5.56"/>
   </edge>
   <edge function="internal" id=":1566191972_5">
      <lane id=":1566191972_5_0" index="0" length="2.41" shape="560.87,748.83 559.98,748.59 558.93,747.53" speed="5.56"/>
   </edge>
   <edge function="internal" id=":1566191974_0">
      <lane disallow="tram rail_urban rail rail_electric ship" id=":1566191974_0_0" index="0" length="5.10" shape="558.53,745.51 558.06,744.17 557.28,743.35 556.19,743.03 554.79,743.22" speed="6.95"/>
   </edge>
   <edge function="internal" id=":1566191974_1">
      <lane disallow="tram rail_urban rail rail_electric ship" id=":1566191974_1_0" index="0" length="10.35" shape="558.53,745.51 558.33,742.60 559.02,740.28 560.58,738.56 563.02,737.43" speed="6.95"/>
   </edge>
   <edge function="internal" id=":1566191974_2">
      <lane allow="delivery bicycle pedestrian" id=":1566191974_2_0" index="0" length="4.82" shape="558.53,745.51 559.10,744.13 559.83,743.57 560.72,743.81 561.77,744.86" speed="5.56"/>
   </edge>
   <edge function="internal" id=":1566191974_3">
      <lane allow="delivery bicycle pedestrian" id=":1566191974_3_0" index="0" length="5.35" shape="563.94,740.60 562.73,741.18 561.97,742.08 561.65,743.31 561.77,744.86" speed="6.95"/>
   </edge>
   <edge function="internal" id=":1566191974_4">
      <lane disallow="tram rail_urban rail rail_electric ship" id=":1566191974_4_0" index="0" length="9.52" shape="563.94,740.60 554.79,743.22" speed="8.33"/>
   </edge>
   <edge function="internal" id=":1566191974_5">
      <lane disallow="tram rail_urban rail rail_electric ship" id=":1566191974_5_0" index="0" length="2.41" shape="563.94,740.60 562.52,740.15 561.90,739.47" speed="8.33"/>
   </edge>
   <edge function="internal" id=":1566191974_9">
      <lane id=":1566191974_9_0" index="0" length="2.41" shape="561.90,739.47 562.06,738.57 563.02,737.43" speed="8.33"/>
   </edge>
   <edge function="internal" id=":1566191974_6">
      <lane disallow="tram rail_urban rail rail_electric ship" id=":1566191974_6_0" index="0" length="9.50" shape="553.89,740.04 563.02,737.43" speed="8.33"/>
   </edge>
   <edge function="internal" id=":1566191974_7">